@<TRIPOS>MOLECULE
beta-cristobalite.xyz
 1800 2213 0 0 0
SMALL
GASTEIGER

@<TRIPOS>ATOM
      1 O           1.1911    0.6877    6.3217 O.3     1  LIG1        0.0000
      2 SI          1.1911    0.6877    0.0000 Si      1  LIG1        0.0000
      3 O           1.1911    2.0631    0.4863 O.3     1  LIG1        0.0000
      4 SI          1.1911    3.4385    0.9726 Si      1  LIG1        0.0000
      5 O           2.3823    0.0000    0.4863 O.3     1  LIG1        0.0000
      6 O           0.0000    0.0000    0.4863 O.3     1  LIG1        0.0000
      7 O           1.1911    3.4385    2.4314 O.3     1  LIG1        0.0000
      8 SI          1.1911    3.4385    3.8903 Si      1  LIG1        0.0000
      9 O           1.1911    2.0631    4.3765 O.3     1  LIG1        0.0000
     10 SI          1.1911    0.6877    4.8628 Si      1  LIG1        0.0000
     11 O           2.3823    0.0000    4.3765 O.3     1  LIG1        0.0000
     12 O           0.0000    0.0000    4.3765 O.3     1  LIG1        0.0000
     13 SI          1.1911    0.6877    7.7805 Si      1  LIG1        0.0000
     14 O           2.3823    0.0000    8.2668 O.3     1  LIG1        0.0000
     15 O           0.0000    0.0000    8.2668 O.3     1  LIG1        0.0000
     16 O           1.1911    2.0631    8.2668 O.3     1  LIG1        0.0000
     17 SI          1.1911    3.4385    8.7531 Si      1  LIG1        0.0000
     18 O           1.1911    3.4385   10.2120 O.3     1  LIG1        0.0000
     19 O           5.9557    0.6877    6.3217 O.3     1  LIG1        0.0000
     20 SI          5.9557    0.6877    0.0000 Si      1  LIG1        0.0000
     21 O           5.9557    2.0631    0.4863 O.3     1  LIG1        0.0000
     22 SI          5.9557    3.4385    0.9726 Si      1  LIG1        0.0000
     23 O           7.1469    0.0000    0.4863 O.3     1  LIG1        0.0000
     24 O           4.7646    0.0000    0.4863 O.3     1  LIG1        0.0000
     25 O           5.9557    3.4385    2.4314 O.3     1  LIG1        0.0000
     26 SI          5.9557    3.4385    3.8903 Si      1  LIG1        0.0000
     27 O           5.9557    2.0631    4.3765 O.3     1  LIG1        0.0000
     28 SI          5.9557    0.6877    4.8628 Si      1  LIG1        0.0000
     29 O           7.1469    0.0000    4.3765 O.3     1  LIG1        0.0000
     30 O           4.7646    0.0000    4.3765 O.3     1  LIG1        0.0000
     31 SI          5.9557    0.6877    7.7805 Si      1  LIG1        0.0000
     32 O           7.1469    0.0000    8.2668 O.3     1  LIG1        0.0000
     33 O           4.7646    0.0000    8.2668 O.3     1  LIG1        0.0000
     34 O           5.9557    2.0631    8.2668 O.3     1  LIG1        0.0000
     35 SI          5.9557    3.4385    8.7531 Si      1  LIG1        0.0000
     36 O           5.9557    3.4385   10.2120 O.3     1  LIG1        0.0000
     37 O           3.5734    4.8140    6.3217 O.3     1  LIG1        0.0000
     38 SI          3.5734    4.8140    0.0000 Si      1  LIG1        0.0000
     39 O           3.5734    6.1894    0.4863 O.3     1  LIG1        0.0000
     40 SI          3.5734    7.5648    0.9726 Si      1  LIG1        0.0000
     41 O           4.7646    4.1262    0.4863 O.3     1  LIG1        0.0000
     42 O           2.3823    4.1262    0.4863 O.3     1  LIG1        0.0000
     43 O           3.5734    7.5648    2.4314 O.3     1  LIG1        0.0000
     44 SI          3.5734    7.5648    3.8903 Si      1  LIG1        0.0000
     45 O           3.5734    6.1894    4.3765 O.3     1  LIG1        0.0000
     46 SI          3.5734    4.8140    4.8628 Si      1  LIG1        0.0000
     47 O           4.7646    4.1262    4.3765 O.3     1  LIG1        0.0000
     48 O           2.3823    4.1262    4.3765 O.3     1  LIG1        0.0000
     49 SI          3.5734    4.8140    7.7805 Si      1  LIG1        0.0000
     50 O           4.7646    4.1262    8.2668 O.3     1  LIG1        0.0000
     51 O           2.3823    4.1262    8.2668 O.3     1  LIG1        0.0000
     52 O           3.5734    6.1894    8.2668 O.3     1  LIG1        0.0000
     53 SI          3.5734    7.5648    8.7531 Si      1  LIG1        0.0000
     54 O           3.5734    7.5648   10.2120 O.3     1  LIG1        0.0000
     55 O           8.3380    4.8140    6.3217 O.3     1  LIG1        0.0000
     56 SI          8.3380    4.8140    0.0000 Si      1  LIG1        0.0000
     57 O           8.3380    6.1894    0.4863 O.3     1  LIG1        0.0000
     58 SI          8.3380    7.5648    0.9726 Si      1  LIG1        0.0000
     59 O           9.5292    4.1262    0.4863 O.3     1  LIG1        0.0000
     60 O           7.1469    4.1262    0.4863 O.3     1  LIG1        0.0000
     61 O           8.3380    7.5648    2.4314 O.3     1  LIG1        0.0000
     62 SI          8.3380    7.5648    3.8903 Si      1  LIG1        0.0000
     63 O           8.3380    6.1894    4.3765 O.3     1  LIG1        0.0000
     64 SI          8.3380    4.8140    4.8628 Si      1  LIG1        0.0000
     65 O           9.5292    4.1262    4.3765 O.3     1  LIG1        0.0000
     66 O           7.1469    4.1262    4.3765 O.3     1  LIG1        0.0000
     67 SI          8.3380    4.8140    7.7805 Si      1  LIG1        0.0000
     68 O           9.5292    4.1262    8.2668 O.3     1  LIG1        0.0000
     69 O           7.1469    4.1262    8.2668 O.3     1  LIG1        0.0000
     70 O           8.3380    6.1894    8.2668 O.3     1  LIG1        0.0000
     71 SI          8.3380    7.5648    8.7531 Si      1  LIG1        0.0000
     72 O           8.3380    7.5648   10.2120 O.3     1  LIG1        0.0000
     73 O          10.7203    0.6877    6.3217 O.3     1  LIG1        0.0000
     74 SI         10.7203    0.6877    0.0000 Si      1  LIG1        0.0000
     75 O          10.7203    2.0631    0.4863 O.3     1  LIG1        0.0000
     76 SI         10.7203    3.4385    0.9726 Si      1  LIG1        0.0000
     77 O          11.9115    0.0000    0.4863 O.3     1  LIG1        0.0000
     78 O           9.5292    0.0000    0.4863 O.3     1  LIG1        0.0000
     79 O          10.7203    3.4385    2.4314 O.3     1  LIG1        0.0000
     80 SI         10.7203    3.4385    3.8903 Si      1  LIG1        0.0000
     81 O          10.7203    2.0631    4.3765 O.3     1  LIG1        0.0000
     82 SI         10.7203    0.6877    4.8628 Si      1  LIG1        0.0000
     83 O          11.9115    0.0000    4.3765 O.3     1  LIG1        0.0000
     84 O           9.5292    0.0000    4.3765 O.3     1  LIG1        0.0000
     85 SI         10.7203    0.6877    7.7805 Si      1  LIG1        0.0000
     86 O          11.9115    0.0000    8.2668 O.3     1  LIG1        0.0000
     87 O           9.5292    0.0000    8.2668 O.3     1  LIG1        0.0000
     88 O          10.7203    2.0631    8.2668 O.3     1  LIG1        0.0000
     89 SI         10.7203    3.4385    8.7531 Si      1  LIG1        0.0000
     90 O          10.7203    3.4385   10.2120 O.3     1  LIG1        0.0000
     91 O          15.4849    0.6877    6.3217 O.3     1  LIG1        0.0000
     92 SI         15.4849    0.6877    0.0000 Si      1  LIG1        0.0000
     93 O          15.4849    2.0631    0.4863 O.3     1  LIG1        0.0000
     94 SI         15.4849    3.4385    0.9726 Si      1  LIG1        0.0000
     95 O          16.6761    0.0000    0.4863 O.3     1  LIG1        0.0000
     96 O          14.2938    0.0000    0.4863 O.3     1  LIG1        0.0000
     97 O          15.4849    3.4385    2.4314 O.3     1  LIG1        0.0000
     98 SI         15.4849    3.4385    3.8903 Si      1  LIG1        0.0000
     99 O          15.4849    2.0631    4.3765 O.3     1  LIG1        0.0000
    100 SI         15.4849    0.6877    4.8628 Si      1  LIG1        0.0000
    101 O          16.6761    0.0000    4.3765 O.3     1  LIG1        0.0000
    102 O          14.2938    0.0000    4.3765 O.3     1  LIG1        0.0000
    103 SI         15.4849    0.6877    7.7805 Si      1  LIG1        0.0000
    104 O          16.6761    0.0000    8.2668 O.3     1  LIG1        0.0000
    105 O          14.2938    0.0000    8.2668 O.3     1  LIG1        0.0000
    106 O          15.4849    2.0631    8.2668 O.3     1  LIG1        0.0000
    107 SI         15.4849    3.4385    8.7531 Si      1  LIG1        0.0000
    108 O          15.4849    3.4385   10.2120 O.3     1  LIG1        0.0000
    109 O          13.1026    4.8140    6.3217 O.3     1  LIG1        0.0000
    110 SI         13.1026    4.8140    0.0000 Si      1  LIG1        0.0000
    111 O          13.1026    6.1894    0.4863 O.3     1  LIG1        0.0000
    112 SI         13.1026    7.5648    0.9726 Si      1  LIG1        0.0000
    113 O          14.2938    4.1262    0.4863 O.3     1  LIG1        0.0000
    114 O          11.9115    4.1262    0.4863 O.3     1  LIG1        0.0000
    115 O          13.1026    7.5648    2.4314 O.3     1  LIG1        0.0000
    116 SI         13.1026    7.5648    3.8903 Si      1  LIG1        0.0000
    117 O          13.1026    6.1894    4.3765 O.3     1  LIG1        0.0000
    118 SI         13.1026    4.8140    4.8628 Si      1  LIG1        0.0000
    119 O          14.2938    4.1262    4.3765 O.3     1  LIG1        0.0000
    120 O          11.9115    4.1262    4.3765 O.3     1  LIG1        0.0000
    121 SI         13.1026    4.8140    7.7805 Si      1  LIG1        0.0000
    122 O          14.2938    4.1262    8.2668 O.3     1  LIG1        0.0000
    123 O          11.9115    4.1262    8.2668 O.3     1  LIG1        0.0000
    124 O          13.1026    6.1894    8.2668 O.3     1  LIG1        0.0000
    125 SI         13.1026    7.5648    8.7531 Si      1  LIG1        0.0000
    126 O          13.1026    7.5648   10.2120 O.3     1  LIG1        0.0000
    127 O          17.8672    4.8140    6.3217 O.3     1  LIG1        0.0000
    128 SI         17.8672    4.8140    0.0000 Si      1  LIG1        0.0000
    129 O          17.8672    6.1894    0.4863 O.3     1  LIG1        0.0000
    130 SI         17.8672    7.5648    0.9726 Si      1  LIG1        0.0000
    131 O          19.0583    4.1262    0.4863 O.3     1  LIG1        0.0000
    132 O          16.6761    4.1262    0.4863 O.3     1  LIG1        0.0000
    133 O          17.8672    7.5648    2.4314 O.3     1  LIG1        0.0000
    134 SI         17.8672    7.5648    3.8903 Si      1  LIG1        0.0000
    135 O          17.8672    6.1894    4.3765 O.3     1  LIG1        0.0000
    136 SI         17.8672    4.8140    4.8628 Si      1  LIG1        0.0000
    137 O          19.0583    4.1262    4.3765 O.3     1  LIG1        0.0000
    138 O          16.6761    4.1262    4.3765 O.3     1  LIG1        0.0000
    139 SI         17.8672    4.8140    7.7805 Si      1  LIG1        0.0000
    140 O          19.0583    4.1262    8.2668 O.3     1  LIG1        0.0000
    141 O          16.6761    4.1262    8.2668 O.3     1  LIG1        0.0000
    142 O          17.8672    6.1894    8.2668 O.3     1  LIG1        0.0000
    143 SI         17.8672    7.5648    8.7531 Si      1  LIG1        0.0000
    144 O          17.8672    7.5648   10.2120 O.3     1  LIG1        0.0000
    145 O          20.2495    0.6877    6.3217 O.3     1  LIG1        0.0000
    146 SI         20.2495    0.6877    0.0000 Si      1  LIG1        0.0000
    147 O          20.2495    2.0631    0.4863 O.3     1  LIG1        0.0000
    148 SI         20.2495    3.4385    0.9726 Si      1  LIG1        0.0000
    149 O          21.4406    0.0000    0.4863 O.3     1  LIG1        0.0000
    150 O          19.0583    0.0000    0.4863 O.3     1  LIG1        0.0000
    151 O          20.2495    3.4385    2.4314 O.3     1  LIG1        0.0000
    152 SI         20.2495    3.4385    3.8903 Si      1  LIG1        0.0000
    153 O          20.2495    2.0631    4.3765 O.3     1  LIG1        0.0000
    154 SI         20.2495    0.6877    4.8628 Si      1  LIG1        0.0000
    155 O          21.4406    0.0000    4.3765 O.3     1  LIG1        0.0000
    156 O          19.0583    0.0000    4.3765 O.3     1  LIG1        0.0000
    157 SI         20.2495    0.6877    7.7805 Si      1  LIG1        0.0000
    158 O          21.4406    0.0000    8.2668 O.3     1  LIG1        0.0000
    159 O          19.0583    0.0000    8.2668 O.3     1  LIG1        0.0000
    160 O          20.2495    2.0631    8.2668 O.3     1  LIG1        0.0000
    161 SI         20.2495    3.4385    8.7531 Si      1  LIG1        0.0000
    162 O          20.2495    3.4385   10.2120 O.3     1  LIG1        0.0000
    163 O          25.0141    0.6877    6.3217 O.3     1  LIG1        0.0000
    164 SI         25.0141    0.6877    0.0000 Si      1  LIG1        0.0000
    165 O          25.0141    2.0631    0.4863 O.3     1  LIG1        0.0000
    166 SI         25.0141    3.4385    0.9726 Si      1  LIG1        0.0000
    167 O          26.2052    0.0000    0.4863 O.3     1  LIG1        0.0000
    168 O          23.8229    0.0000    0.4863 O.3     1  LIG1        0.0000
    169 O          25.0141    3.4385    2.4314 O.3     1  LIG1        0.0000
    170 SI         25.0141    3.4385    3.8903 Si      1  LIG1        0.0000
    171 O          25.0141    2.0631    4.3765 O.3     1  LIG1        0.0000
    172 SI         25.0141    0.6877    4.8628 Si      1  LIG1        0.0000
    173 O          26.2052    0.0000    4.3765 O.3     1  LIG1        0.0000
    174 O          23.8229    0.0000    4.3765 O.3     1  LIG1        0.0000
    175 SI         25.0141    0.6877    7.7805 Si      1  LIG1        0.0000
    176 O          26.2052    0.0000    8.2668 O.3     1  LIG1        0.0000
    177 O          23.8229    0.0000    8.2668 O.3     1  LIG1        0.0000
    178 O          25.0141    2.0631    8.2668 O.3     1  LIG1        0.0000
    179 SI         25.0141    3.4385    8.7531 Si      1  LIG1        0.0000
    180 O          25.0141    3.4385   10.2120 O.3     1  LIG1        0.0000
    181 O          22.6318    4.8140    6.3217 O.3     1  LIG1        0.0000
    182 SI         22.6318    4.8140    0.0000 Si      1  LIG1        0.0000
    183 O          22.6318    6.1894    0.4863 O.3     1  LIG1        0.0000
    184 SI         22.6318    7.5648    0.9726 Si      1  LIG1        0.0000
    185 O          23.8229    4.1262    0.4863 O.3     1  LIG1        0.0000
    186 O          21.4406    4.1262    0.4863 O.3     1  LIG1        0.0000
    187 O          22.6318    7.5648    2.4314 O.3     1  LIG1        0.0000
    188 SI         22.6318    7.5648    3.8903 Si      1  LIG1        0.0000
    189 O          22.6318    6.1894    4.3765 O.3     1  LIG1        0.0000
    190 SI         22.6318    4.8140    4.8628 Si      1  LIG1        0.0000
    191 O          23.8229    4.1262    4.3765 O.3     1  LIG1        0.0000
    192 O          21.4406    4.1262    4.3765 O.3     1  LIG1        0.0000
    193 SI         22.6318    4.8140    7.7805 Si      1  LIG1        0.0000
    194 O          23.8229    4.1262    8.2668 O.3     1  LIG1        0.0000
    195 O          21.4406    4.1262    8.2668 O.3     1  LIG1        0.0000
    196 O          22.6318    6.1894    8.2668 O.3     1  LIG1        0.0000
    197 SI         22.6318    7.5648    8.7531 Si      1  LIG1        0.0000
    198 O          22.6318    7.5648   10.2120 O.3     1  LIG1        0.0000
    199 O          27.3964    4.8140    6.3217 O.3     1  LIG1        0.0000
    200 SI         27.3964    4.8140    0.0000 Si      1  LIG1        0.0000
    201 O          27.3964    6.1894    0.4863 O.3     1  LIG1        0.0000
    202 SI         27.3964    7.5648    0.9726 Si      1  LIG1        0.0000
    203 O          28.5875    4.1262    0.4863 O.3     1  LIG1        0.0000
    204 O          26.2052    4.1262    0.4863 O.3     1  LIG1        0.0000
    205 O          27.3964    7.5648    2.4314 O.3     1  LIG1        0.0000
    206 SI         27.3964    7.5648    3.8903 Si      1  LIG1        0.0000
    207 O          27.3964    6.1894    4.3765 O.3     1  LIG1        0.0000
    208 SI         27.3964    4.8140    4.8628 Si      1  LIG1        0.0000
    209 O          28.5875    4.1262    4.3765 O.3     1  LIG1        0.0000
    210 O          26.2052    4.1262    4.3765 O.3     1  LIG1        0.0000
    211 SI         27.3964    4.8140    7.7805 Si      1  LIG1        0.0000
    212 O          28.5875    4.1262    8.2668 O.3     1  LIG1        0.0000
    213 O          26.2052    4.1262    8.2668 O.3     1  LIG1        0.0000
    214 O          27.3964    6.1894    8.2668 O.3     1  LIG1        0.0000
    215 SI         27.3964    7.5648    8.7531 Si      1  LIG1        0.0000
    216 O          27.3964    7.5648   10.2120 O.3     1  LIG1        0.0000
    217 O          29.7787    0.6877    6.3217 O.3     1  LIG1        0.0000
    218 SI         29.7787    0.6877    0.0000 Si      1  LIG1        0.0000
    219 O          29.7787    2.0631    0.4863 O.3     1  LIG1        0.0000
    220 SI         29.7787    3.4385    0.9726 Si      1  LIG1        0.0000
    221 O          30.9698    0.0000    0.4863 O.3     1  LIG1        0.0000
    222 O          28.5875    0.0000    0.4863 O.3     1  LIG1        0.0000
    223 O          29.7787    3.4385    2.4314 O.3     1  LIG1        0.0000
    224 SI         29.7787    3.4385    3.8903 Si      1  LIG1        0.0000
    225 O          29.7787    2.0631    4.3765 O.3     1  LIG1        0.0000
    226 SI         29.7787    0.6877    4.8628 Si      1  LIG1        0.0000
    227 O          30.9698    0.0000    4.3765 O.3     1  LIG1        0.0000
    228 O          28.5875    0.0000    4.3765 O.3     1  LIG1        0.0000
    229 SI         29.7787    0.6877    7.7805 Si      1  LIG1        0.0000
    230 O          30.9698    0.0000    8.2668 O.3     1  LIG1        0.0000
    231 O          28.5875    0.0000    8.2668 O.3     1  LIG1        0.0000
    232 O          29.7787    2.0631    8.2668 O.3     1  LIG1        0.0000
    233 SI         29.7787    3.4385    8.7531 Si      1  LIG1        0.0000
    234 O          29.7787    3.4385   10.2120 O.3     1  LIG1        0.0000
    235 O          34.5433    0.6877    6.3217 O.3     1  LIG1        0.0000
    236 SI         34.5433    0.6877    0.0000 Si      1  LIG1        0.0000
    237 O          34.5433    2.0631    0.4863 O.3     1  LIG1        0.0000
    238 SI         34.5433    3.4385    0.9726 Si      1  LIG1        0.0000
    239 O          35.7344    0.0000    0.4863 O.3     1  LIG1        0.0000
    240 O          33.3521    0.0000    0.4863 O.3     1  LIG1        0.0000
    241 O          34.5433    3.4385    2.4314 O.3     1  LIG1        0.0000
    242 SI         34.5433    3.4385    3.8903 Si      1  LIG1        0.0000
    243 O          34.5433    2.0631    4.3765 O.3     1  LIG1        0.0000
    244 SI         34.5433    0.6877    4.8628 Si      1  LIG1        0.0000
    245 O          35.7344    0.0000    4.3765 O.3     1  LIG1        0.0000
    246 O          33.3521    0.0000    4.3765 O.3     1  LIG1        0.0000
    247 SI         34.5433    0.6877    7.7805 Si      1  LIG1        0.0000
    248 O          35.7344    0.0000    8.2668 O.3     1  LIG1        0.0000
    249 O          33.3521    0.0000    8.2668 O.3     1  LIG1        0.0000
    250 O          34.5433    2.0631    8.2668 O.3     1  LIG1        0.0000
    251 SI         34.5433    3.4385    8.7531 Si      1  LIG1        0.0000
    252 O          34.5433    3.4385   10.2120 O.3     1  LIG1        0.0000
    253 O          32.1610    4.8140    6.3217 O.3     1  LIG1        0.0000
    254 SI         32.1610    4.8140    0.0000 Si      1  LIG1        0.0000
    255 O          32.1610    6.1894    0.4863 O.3     1  LIG1        0.0000
    256 SI         32.1610    7.5648    0.9726 Si      1  LIG1        0.0000
    257 O          33.3521    4.1262    0.4863 O.3     1  LIG1        0.0000
    258 O          30.9698    4.1262    0.4863 O.3     1  LIG1        0.0000
    259 O          32.1610    7.5648    2.4314 O.3     1  LIG1        0.0000
    260 SI         32.1610    7.5648    3.8903 Si      1  LIG1        0.0000
    261 O          32.1610    6.1894    4.3765 O.3     1  LIG1        0.0000
    262 SI         32.1610    4.8140    4.8628 Si      1  LIG1        0.0000
    263 O          33.3521    4.1262    4.3765 O.3     1  LIG1        0.0000
    264 O          30.9698    4.1262    4.3765 O.3     1  LIG1        0.0000
    265 SI         32.1610    4.8140    7.7805 Si      1  LIG1        0.0000
    266 O          33.3521    4.1262    8.2668 O.3     1  LIG1        0.0000
    267 O          30.9698    4.1262    8.2668 O.3     1  LIG1        0.0000
    268 O          32.1610    6.1894    8.2668 O.3     1  LIG1        0.0000
    269 SI         32.1610    7.5648    8.7531 Si      1  LIG1        0.0000
    270 O          32.1610    7.5648   10.2120 O.3     1  LIG1        0.0000
    271 O          36.9255    4.8140    6.3217 O.3     1  LIG1        0.0000
    272 SI         36.9255    4.8140    0.0000 Si      1  LIG1        0.0000
    273 O          36.9255    6.1894    0.4863 O.3     1  LIG1        0.0000
    274 SI         36.9255    7.5648    0.9726 Si      1  LIG1        0.0000
    275 O          38.1167    4.1262    0.4863 O.3     1  LIG1        0.0000
    276 O          35.7344    4.1262    0.4863 O.3     1  LIG1        0.0000
    277 O          36.9255    7.5648    2.4314 O.3     1  LIG1        0.0000
    278 SI         36.9255    7.5648    3.8903 Si      1  LIG1        0.0000
    279 O          36.9255    6.1894    4.3765 O.3     1  LIG1        0.0000
    280 SI         36.9255    4.8140    4.8628 Si      1  LIG1        0.0000
    281 O          38.1167    4.1262    4.3765 O.3     1  LIG1        0.0000
    282 O          35.7344    4.1262    4.3765 O.3     1  LIG1        0.0000
    283 SI         36.9255    4.8140    7.7805 Si      1  LIG1        0.0000
    284 O          38.1167    4.1262    8.2668 O.3     1  LIG1        0.0000
    285 O          35.7344    4.1262    8.2668 O.3     1  LIG1        0.0000
    286 O          36.9255    6.1894    8.2668 O.3     1  LIG1        0.0000
    287 SI         36.9255    7.5648    8.7531 Si      1  LIG1        0.0000
    288 O          36.9255    7.5648   10.2120 O.3     1  LIG1        0.0000
    289 O          39.3078    0.6877    6.3217 O.3     1  LIG1        0.0000
    290 SI         39.3078    0.6877    0.0000 Si      1  LIG1        0.0000
    291 O          39.3078    2.0631    0.4863 O.3     1  LIG1        0.0000
    292 SI         39.3078    3.4385    0.9726 Si      1  LIG1        0.0000
    293 O          40.4990    0.0000    0.4863 O.3     1  LIG1        0.0000
    294 O          38.1167    0.0000    0.4863 O.3     1  LIG1        0.0000
    295 O          39.3078    3.4385    2.4314 O.3     1  LIG1        0.0000
    296 SI         39.3078    3.4385    3.8903 Si      1  LIG1        0.0000
    297 O          39.3078    2.0631    4.3765 O.3     1  LIG1        0.0000
    298 SI         39.3078    0.6877    4.8628 Si      1  LIG1        0.0000
    299 O          40.4990    0.0000    4.3765 O.3     1  LIG1        0.0000
    300 O          38.1167    0.0000    4.3765 O.3     1  LIG1        0.0000
    301 SI         39.3078    0.6877    7.7805 Si      1  LIG1        0.0000
    302 O          40.4990    0.0000    8.2668 O.3     1  LIG1        0.0000
    303 O          38.1167    0.0000    8.2668 O.3     1  LIG1        0.0000
    304 O          39.3078    2.0631    8.2668 O.3     1  LIG1        0.0000
    305 SI         39.3078    3.4385    8.7531 Si      1  LIG1        0.0000
    306 O          39.3078    3.4385   10.2120 O.3     1  LIG1        0.0000
    307 O          44.0724    0.6877    6.3217 O.3     1  LIG1        0.0000
    308 SI         44.0724    0.6877    0.0000 Si      1  LIG1        0.0000
    309 O          44.0724    2.0631    0.4863 O.3     1  LIG1        0.0000
    310 SI         44.0724    3.4385    0.9726 Si      1  LIG1        0.0000
    311 O          45.2636    0.0000    0.4863 O.3     1  LIG1        0.0000
    312 O          42.8813    0.0000    0.4863 O.3     1  LIG1        0.0000
    313 O          44.0724    3.4385    2.4314 O.3     1  LIG1        0.0000
    314 SI         44.0724    3.4385    3.8903 Si      1  LIG1        0.0000
    315 O          44.0724    2.0631    4.3765 O.3     1  LIG1        0.0000
    316 SI         44.0724    0.6877    4.8628 Si      1  LIG1        0.0000
    317 O          45.2636    0.0000    4.3765 O.3     1  LIG1        0.0000
    318 O          42.8813    0.0000    4.3765 O.3     1  LIG1        0.0000
    319 SI         44.0724    0.6877    7.7805 Si      1  LIG1        0.0000
    320 O          45.2636    0.0000    8.2668 O.3     1  LIG1        0.0000
    321 O          42.8813    0.0000    8.2668 O.3     1  LIG1        0.0000
    322 O          44.0724    2.0631    8.2668 O.3     1  LIG1        0.0000
    323 SI         44.0724    3.4385    8.7531 Si      1  LIG1        0.0000
    324 O          44.0724    3.4385   10.2120 O.3     1  LIG1        0.0000
    325 O          41.6901    4.8140    6.3217 O.3     1  LIG1        0.0000
    326 SI         41.6901    4.8140    0.0000 Si      1  LIG1        0.0000
    327 O          41.6901    6.1894    0.4863 O.3     1  LIG1        0.0000
    328 SI         41.6901    7.5648    0.9726 Si      1  LIG1        0.0000
    329 O          42.8813    4.1262    0.4863 O.3     1  LIG1        0.0000
    330 O          40.4990    4.1262    0.4863 O.3     1  LIG1        0.0000
    331 O          41.6901    7.5648    2.4314 O.3     1  LIG1        0.0000
    332 SI         41.6901    7.5648    3.8903 Si      1  LIG1        0.0000
    333 O          41.6901    6.1894    4.3765 O.3     1  LIG1        0.0000
    334 SI         41.6901    4.8140    4.8628 Si      1  LIG1        0.0000
    335 O          42.8813    4.1262    4.3765 O.3     1  LIG1        0.0000
    336 O          40.4990    4.1262    4.3765 O.3     1  LIG1        0.0000
    337 SI         41.6901    4.8140    7.7805 Si      1  LIG1        0.0000
    338 O          42.8813    4.1262    8.2668 O.3     1  LIG1        0.0000
    339 O          40.4990    4.1262    8.2668 O.3     1  LIG1        0.0000
    340 O          41.6901    6.1894    8.2668 O.3     1  LIG1        0.0000
    341 SI         41.6901    7.5648    8.7531 Si      1  LIG1        0.0000
    342 O          41.6901    7.5648   10.2120 O.3     1  LIG1        0.0000
    343 O          46.4547    4.8140    6.3217 O.3     1  LIG1        0.0000
    344 SI         46.4547    4.8140    0.0000 Si      1  LIG1        0.0000
    345 O          46.4547    6.1894    0.4863 O.3     1  LIG1        0.0000
    346 SI         46.4547    7.5648    0.9726 Si      1  LIG1        0.0000
    347 O          47.6459    4.1262    0.4863 O.3     1  LIG1        0.0000
    348 O          45.2636    4.1262    0.4863 O.3     1  LIG1        0.0000
    349 O          46.4547    7.5648    2.4314 O.3     1  LIG1        0.0000
    350 SI         46.4547    7.5648    3.8903 Si      1  LIG1        0.0000
    351 O          46.4547    6.1894    4.3765 O.3     1  LIG1        0.0000
    352 SI         46.4547    4.8140    4.8628 Si      1  LIG1        0.0000
    353 O          47.6459    4.1262    4.3765 O.3     1  LIG1        0.0000
    354 O          45.2636    4.1262    4.3765 O.3     1  LIG1        0.0000
    355 SI         46.4547    4.8140    7.7805 Si      1  LIG1        0.0000
    356 O          47.6459    4.1262    8.2668 O.3     1  LIG1        0.0000
    357 O          45.2636    4.1262    8.2668 O.3     1  LIG1        0.0000
    358 O          46.4547    6.1894    8.2668 O.3     1  LIG1        0.0000
    359 SI         46.4547    7.5648    8.7531 Si      1  LIG1        0.0000
    360 O          46.4547    7.5648   10.2120 O.3     1  LIG1        0.0000
    361 O           1.1911    8.9402    6.3217 O.3     1  LIG1        0.0000
    362 SI          1.1911    8.9402    0.0000 Si      1  LIG1        0.0000
    363 O           1.1911   10.3156    0.4863 O.3     1  LIG1        0.0000
    364 SI          1.1911   11.6911    0.9726 Si      1  LIG1        0.0000
    365 O           2.3823    8.2525    0.4863 O.3     1  LIG1        0.0000
    366 O           0.0000    8.2525    0.4863 O.3     1  LIG1        0.0000
    367 O           1.1911   11.6911    2.4314 O.3     1  LIG1        0.0000
    368 SI          1.1911   11.6911    3.8903 Si      1  LIG1        0.0000
    369 O           1.1911   10.3156    4.3765 O.3     1  LIG1        0.0000
    370 SI          1.1911    8.9402    4.8628 Si      1  LIG1        0.0000
    371 O           2.3823    8.2525    4.3765 O.3     1  LIG1        0.0000
    372 O           0.0000    8.2525    4.3765 O.3     1  LIG1        0.0000
    373 SI          1.1911    8.9402    7.7805 Si      1  LIG1        0.0000
    374 O           2.3823    8.2525    8.2668 O.3     1  LIG1        0.0000
    375 O           0.0000    8.2525    8.2668 O.3     1  LIG1        0.0000
    376 O           1.1911   10.3156    8.2668 O.3     1  LIG1        0.0000
    377 SI          1.1911   11.6911    8.7531 Si      1  LIG1        0.0000
    378 O           1.1911   11.6911   10.2120 O.3     1  LIG1        0.0000
    379 O           5.9557    8.9402    6.3217 O.3     1  LIG1        0.0000
    380 SI          5.9557    8.9402    0.0000 Si      1  LIG1        0.0000
    381 O           5.9557   10.3156    0.4863 O.3     1  LIG1        0.0000
    382 SI          5.9557   11.6911    0.9726 Si      1  LIG1        0.0000
    383 O           7.1469    8.2525    0.4863 O.3     1  LIG1        0.0000
    384 O           4.7646    8.2525    0.4863 O.3     1  LIG1        0.0000
    385 O           5.9557   11.6911    2.4314 O.3     1  LIG1        0.0000
    386 SI          5.9557   11.6911    3.8903 Si      1  LIG1        0.0000
    387 O           5.9557   10.3156    4.3765 O.3     1  LIG1        0.0000
    388 SI          5.9557    8.9402    4.8628 Si      1  LIG1        0.0000
    389 O           7.1469    8.2525    4.3765 O.3     1  LIG1        0.0000
    390 O           4.7646    8.2525    4.3765 O.3     1  LIG1        0.0000
    391 SI          5.9557    8.9402    7.7805 Si      1  LIG1        0.0000
    392 O           7.1469    8.2525    8.2668 O.3     1  LIG1        0.0000
    393 O           4.7646    8.2525    8.2668 O.3     1  LIG1        0.0000
    394 O           5.9557   10.3156    8.2668 O.3     1  LIG1        0.0000
    395 SI          5.9557   11.6911    8.7531 Si      1  LIG1        0.0000
    396 O           5.9557   11.6911   10.2120 O.3     1  LIG1        0.0000
    397 O           3.5734   13.0665    6.3217 O.3     1  LIG1        0.0000
    398 SI          3.5734   13.0665    0.0000 Si      1  LIG1        0.0000
    399 O           3.5734   14.4419    0.4863 O.3     1  LIG1        0.0000
    400 SI          3.5734   15.8173    0.9726 Si      1  LIG1        0.0000
    401 O           4.7646   12.3788    0.4863 O.3     1  LIG1        0.0000
    402 O           2.3823   12.3788    0.4863 O.3     1  LIG1        0.0000
    403 O           3.5734   15.8173    2.4314 O.3     1  LIG1        0.0000
    404 SI          3.5734   15.8173    3.8903 Si      1  LIG1        0.0000
    405 O           3.5734   14.4419    4.3765 O.3     1  LIG1        0.0000
    406 SI          3.5734   13.0665    4.8628 Si      1  LIG1        0.0000
    407 O           4.7646   12.3788    4.3765 O.3     1  LIG1        0.0000
    408 O           2.3823   12.3788    4.3765 O.3     1  LIG1        0.0000
    409 SI          3.5734   13.0665    7.7805 Si      1  LIG1        0.0000
    410 O           4.7646   12.3788    8.2668 O.3     1  LIG1        0.0000
    411 O           2.3823   12.3788    8.2668 O.3     1  LIG1        0.0000
    412 O           3.5734   14.4419    8.2668 O.3     1  LIG1        0.0000
    413 SI          3.5734   15.8173    8.7531 Si      1  LIG1        0.0000
    414 O           3.5734   15.8173   10.2120 O.3     1  LIG1        0.0000
    415 O           8.3380   13.0665    6.3217 O.3     1  LIG1        0.0000
    416 SI          8.3380   13.0665    0.0000 Si      1  LIG1        0.0000
    417 O           8.3380   14.4419    0.4863 O.3     1  LIG1        0.0000
    418 SI          8.3380   15.8173    0.9726 Si      1  LIG1        0.0000
    419 O           9.5292   12.3788    0.4863 O.3     1  LIG1        0.0000
    420 O           7.1469   12.3788    0.4863 O.3     1  LIG1        0.0000
    421 O           8.3380   15.8173    2.4314 O.3     1  LIG1        0.0000
    422 SI          8.3380   15.8173    3.8903 Si      1  LIG1        0.0000
    423 O           8.3380   14.4419    4.3765 O.3     1  LIG1        0.0000
    424 SI          8.3380   13.0665    4.8628 Si      1  LIG1        0.0000
    425 O           9.5292   12.3788    4.3765 O.3     1  LIG1        0.0000
    426 O           7.1469   12.3788    4.3765 O.3     1  LIG1        0.0000
    427 SI          8.3380   13.0665    7.7805 Si      1  LIG1        0.0000
    428 O           9.5292   12.3788    8.2668 O.3     1  LIG1        0.0000
    429 O           7.1469   12.3788    8.2668 O.3     1  LIG1        0.0000
    430 O           8.3380   14.4419    8.2668 O.3     1  LIG1        0.0000
    431 SI          8.3380   15.8173    8.7531 Si      1  LIG1        0.0000
    432 O           8.3380   15.8173   10.2120 O.3     1  LIG1        0.0000
    433 O          10.7203    8.9402    6.3217 O.3     1  LIG1        0.0000
    434 SI         10.7203    8.9402    0.0000 Si      1  LIG1        0.0000
    435 O          10.7203   10.3156    0.4863 O.3     1  LIG1        0.0000
    436 SI         10.7203   11.6911    0.9726 Si      1  LIG1        0.0000
    437 O          11.9115    8.2525    0.4863 O.3     1  LIG1        0.0000
    438 O           9.5292    8.2525    0.4863 O.3     1  LIG1        0.0000
    439 O          10.7203   11.6911    2.4314 O.3     1  LIG1        0.0000
    440 SI         10.7203   11.6911    3.8903 Si      1  LIG1        0.0000
    441 O          10.7203   10.3156    4.3765 O.3     1  LIG1        0.0000
    442 SI         10.7203    8.9402    4.8628 Si      1  LIG1        0.0000
    443 O          11.9115    8.2525    4.3765 O.3     1  LIG1        0.0000
    444 O           9.5292    8.2525    4.3765 O.3     1  LIG1        0.0000
    445 SI         10.7203    8.9402    7.7805 Si      1  LIG1        0.0000
    446 O          11.9115    8.2525    8.2668 O.3     1  LIG1        0.0000
    447 O           9.5292    8.2525    8.2668 O.3     1  LIG1        0.0000
    448 O          10.7203   10.3156    8.2668 O.3     1  LIG1        0.0000
    449 SI         10.7203   11.6911    8.7531 Si      1  LIG1        0.0000
    450 O          10.7203   11.6911   10.2120 O.3     1  LIG1        0.0000
    451 O          15.4849    8.9402    6.3217 O.3     1  LIG1        0.0000
    452 SI         15.4849    8.9402    0.0000 Si      1  LIG1        0.0000
    453 O          15.4849   10.3156    0.4863 O.3     1  LIG1        0.0000
    454 SI         15.4849   11.6911    0.9726 Si      1  LIG1        0.0000
    455 O          16.6761    8.2525    0.4863 O.3     1  LIG1        0.0000
    456 O          14.2938    8.2525    0.4863 O.3     1  LIG1        0.0000
    457 O          15.4849   11.6911    2.4314 O.3     1  LIG1        0.0000
    458 SI         15.4849   11.6911    3.8903 Si      1  LIG1        0.0000
    459 O          15.4849   10.3156    4.3765 O.3     1  LIG1        0.0000
    460 SI         15.4849    8.9402    4.8628 Si      1  LIG1        0.0000
    461 O          16.6761    8.2525    4.3765 O.3     1  LIG1        0.0000
    462 O          14.2938    8.2525    4.3765 O.3     1  LIG1        0.0000
    463 SI         15.4849    8.9402    7.7805 Si      1  LIG1        0.0000
    464 O          16.6761    8.2525    8.2668 O.3     1  LIG1        0.0000
    465 O          14.2938    8.2525    8.2668 O.3     1  LIG1        0.0000
    466 O          15.4849   10.3156    8.2668 O.3     1  LIG1        0.0000
    467 SI         15.4849   11.6911    8.7531 Si      1  LIG1        0.0000
    468 O          15.4849   11.6911   10.2120 O.3     1  LIG1        0.0000
    469 O          13.1026   13.0665    6.3217 O.3     1  LIG1        0.0000
    470 SI         13.1026   13.0665    0.0000 Si      1  LIG1        0.0000
    471 O          13.1026   14.4419    0.4863 O.3     1  LIG1        0.0000
    472 SI         13.1026   15.8173    0.9726 Si      1  LIG1        0.0000
    473 O          14.2938   12.3788    0.4863 O.3     1  LIG1        0.0000
    474 O          11.9115   12.3788    0.4863 O.3     1  LIG1        0.0000
    475 O          13.1026   15.8173    2.4314 O.3     1  LIG1        0.0000
    476 SI         13.1026   15.8173    3.8903 Si      1  LIG1        0.0000
    477 O          13.1026   14.4419    4.3765 O.3     1  LIG1        0.0000
    478 SI         13.1026   13.0665    4.8628 Si      1  LIG1        0.0000
    479 O          14.2938   12.3788    4.3765 O.3     1  LIG1        0.0000
    480 O          11.9115   12.3788    4.3765 O.3     1  LIG1        0.0000
    481 SI         13.1026   13.0665    7.7805 Si      1  LIG1        0.0000
    482 O          14.2938   12.3788    8.2668 O.3     1  LIG1        0.0000
    483 O          11.9115   12.3788    8.2668 O.3     1  LIG1        0.0000
    484 O          13.1026   14.4419    8.2668 O.3     1  LIG1        0.0000
    485 SI         13.1026   15.8173    8.7531 Si      1  LIG1        0.0000
    486 O          13.1026   15.8173   10.2120 O.3     1  LIG1        0.0000
    487 O          17.8672   13.0665    6.3217 O.3     1  LIG1        0.0000
    488 SI         17.8672   13.0665    0.0000 Si      1  LIG1        0.0000
    489 O          17.8672   14.4419    0.4863 O.3     1  LIG1        0.0000
    490 SI         17.8672   15.8173    0.9726 Si      1  LIG1        0.0000
    491 O          19.0583   12.3788    0.4863 O.3     1  LIG1        0.0000
    492 O          16.6761   12.3788    0.4863 O.3     1  LIG1        0.0000
    493 O          17.8672   15.8173    2.4314 O.3     1  LIG1        0.0000
    494 SI         17.8672   15.8173    3.8903 Si      1  LIG1        0.0000
    495 O          17.8672   14.4419    4.3765 O.3     1  LIG1        0.0000
    496 SI         17.8672   13.0665    4.8628 Si      1  LIG1        0.0000
    497 O          19.0583   12.3788    4.3765 O.3     1  LIG1        0.0000
    498 O          16.6761   12.3788    4.3765 O.3     1  LIG1        0.0000
    499 SI         17.8672   13.0665    7.7805 Si      1  LIG1        0.0000
    500 O          19.0583   12.3788    8.2668 O.3     1  LIG1        0.0000
    501 O          16.6761   12.3788    8.2668 O.3     1  LIG1        0.0000
    502 O          17.8672   14.4419    8.2668 O.3     1  LIG1        0.0000
    503 SI         17.8672   15.8173    8.7531 Si      1  LIG1        0.0000
    504 O          17.8672   15.8173   10.2120 O.3     1  LIG1        0.0000
    505 O          20.2495    8.9402    6.3217 O.3     1  LIG1        0.0000
    506 SI         20.2495    8.9402    0.0000 Si      1  LIG1        0.0000
    507 O          20.2495   10.3156    0.4863 O.3     1  LIG1        0.0000
    508 SI         20.2495   11.6911    0.9726 Si      1  LIG1        0.0000
    509 O          21.4406    8.2525    0.4863 O.3     1  LIG1        0.0000
    510 O          19.0583    8.2525    0.4863 O.3     1  LIG1        0.0000
    511 O          20.2495   11.6911    2.4314 O.3     1  LIG1        0.0000
    512 SI         20.2495   11.6911    3.8903 Si      1  LIG1        0.0000
    513 O          20.2495   10.3156    4.3765 O.3     1  LIG1        0.0000
    514 SI         20.2495    8.9402    4.8628 Si      1  LIG1        0.0000
    515 O          21.4406    8.2525    4.3765 O.3     1  LIG1        0.0000
    516 O          19.0583    8.2525    4.3765 O.3     1  LIG1        0.0000
    517 SI         20.2495    8.9402    7.7805 Si      1  LIG1        0.0000
    518 O          21.4406    8.2525    8.2668 O.3     1  LIG1        0.0000
    519 O          19.0583    8.2525    8.2668 O.3     1  LIG1        0.0000
    520 O          20.2495   10.3156    8.2668 O.3     1  LIG1        0.0000
    521 SI         20.2495   11.6911    8.7531 Si      1  LIG1        0.0000
    522 O          20.2495   11.6911   10.2120 O.3     1  LIG1        0.0000
    523 O          25.0141    8.9402    6.3217 O.3     1  LIG1        0.0000
    524 SI         25.0141    8.9402    0.0000 Si      1  LIG1        0.0000
    525 O          25.0141   10.3156    0.4863 O.3     1  LIG1        0.0000
    526 SI         25.0141   11.6911    0.9726 Si      1  LIG1        0.0000
    527 O          26.2052    8.2525    0.4863 O.3     1  LIG1        0.0000
    528 O          23.8229    8.2525    0.4863 O.3     1  LIG1        0.0000
    529 O          25.0141   11.6911    2.4314 O.3     1  LIG1        0.0000
    530 SI         25.0141   11.6911    3.8903 Si      1  LIG1        0.0000
    531 O          25.0141   10.3156    4.3765 O.3     1  LIG1        0.0000
    532 SI         25.0141    8.9402    4.8628 Si      1  LIG1        0.0000
    533 O          26.2052    8.2525    4.3765 O.3     1  LIG1        0.0000
    534 O          23.8229    8.2525    4.3765 O.3     1  LIG1        0.0000
    535 SI         25.0141    8.9402    7.7805 Si      1  LIG1        0.0000
    536 O          26.2052    8.2525    8.2668 O.3     1  LIG1        0.0000
    537 O          23.8229    8.2525    8.2668 O.3     1  LIG1        0.0000
    538 O          25.0141   10.3156    8.2668 O.3     1  LIG1        0.0000
    539 SI         25.0141   11.6911    8.7531 Si      1  LIG1        0.0000
    540 O          25.0141   11.6911   10.2120 O.3     1  LIG1        0.0000
    541 O          22.6318   13.0665    6.3217 O.3     1  LIG1        0.0000
    542 SI         22.6318   13.0665    0.0000 Si      1  LIG1        0.0000
    543 O          22.6318   14.4419    0.4863 O.3     1  LIG1        0.0000
    544 SI         22.6318   15.8173    0.9726 Si      1  LIG1        0.0000
    545 O          23.8229   12.3788    0.4863 O.3     1  LIG1        0.0000
    546 O          21.4406   12.3788    0.4863 O.3     1  LIG1        0.0000
    547 O          22.6318   15.8173    2.4314 O.3     1  LIG1        0.0000
    548 SI         22.6318   15.8173    3.8903 Si      1  LIG1        0.0000
    549 O          22.6318   14.4419    4.3765 O.3     1  LIG1        0.0000
    550 SI         22.6318   13.0665    4.8628 Si      1  LIG1        0.0000
    551 O          23.8229   12.3788    4.3765 O.3     1  LIG1        0.0000
    552 O          21.4406   12.3788    4.3765 O.3     1  LIG1        0.0000
    553 SI         22.6318   13.0665    7.7805 Si      1  LIG1        0.0000
    554 O          23.8229   12.3788    8.2668 O.3     1  LIG1        0.0000
    555 O          21.4406   12.3788    8.2668 O.3     1  LIG1        0.0000
    556 O          22.6318   14.4419    8.2668 O.3     1  LIG1        0.0000
    557 SI         22.6318   15.8173    8.7531 Si      1  LIG1        0.0000
    558 O          22.6318   15.8173   10.2120 O.3     1  LIG1        0.0000
    559 O          27.3964   13.0665    6.3217 O.3     1  LIG1        0.0000
    560 SI         27.3964   13.0665    0.0000 Si      1  LIG1        0.0000
    561 O          27.3964   14.4419    0.4863 O.3     1  LIG1        0.0000
    562 SI         27.3964   15.8173    0.9726 Si      1  LIG1        0.0000
    563 O          28.5875   12.3788    0.4863 O.3     1  LIG1        0.0000
    564 O          26.2052   12.3788    0.4863 O.3     1  LIG1        0.0000
    565 O          27.3964   15.8173    2.4314 O.3     1  LIG1        0.0000
    566 SI         27.3964   15.8173    3.8903 Si      1  LIG1        0.0000
    567 O          27.3964   14.4419    4.3765 O.3     1  LIG1        0.0000
    568 SI         27.3964   13.0665    4.8628 Si      1  LIG1        0.0000
    569 O          28.5875   12.3788    4.3765 O.3     1  LIG1        0.0000
    570 O          26.2052   12.3788    4.3765 O.3     1  LIG1        0.0000
    571 SI         27.3964   13.0665    7.7805 Si      1  LIG1        0.0000
    572 O          28.5875   12.3788    8.2668 O.3     1  LIG1        0.0000
    573 O          26.2052   12.3788    8.2668 O.3     1  LIG1        0.0000
    574 O          27.3964   14.4419    8.2668 O.3     1  LIG1        0.0000
    575 SI         27.3964   15.8173    8.7531 Si      1  LIG1        0.0000
    576 O          27.3964   15.8173   10.2120 O.3     1  LIG1        0.0000
    577 O          29.7787    8.9402    6.3217 O.3     1  LIG1        0.0000
    578 SI         29.7787    8.9402    0.0000 Si      1  LIG1        0.0000
    579 O          29.7787   10.3156    0.4863 O.3     1  LIG1        0.0000
    580 SI         29.7787   11.6911    0.9726 Si      1  LIG1        0.0000
    581 O          30.9698    8.2525    0.4863 O.3     1  LIG1        0.0000
    582 O          28.5875    8.2525    0.4863 O.3     1  LIG1        0.0000
    583 O          29.7787   11.6911    2.4314 O.3     1  LIG1        0.0000
    584 SI         29.7787   11.6911    3.8903 Si      1  LIG1        0.0000
    585 O          29.7787   10.3156    4.3765 O.3     1  LIG1        0.0000
    586 SI         29.7787    8.9402    4.8628 Si      1  LIG1        0.0000
    587 O          30.9698    8.2525    4.3765 O.3     1  LIG1        0.0000
    588 O          28.5875    8.2525    4.3765 O.3     1  LIG1        0.0000
    589 SI         29.7787    8.9402    7.7805 Si      1  LIG1        0.0000
    590 O          30.9698    8.2525    8.2668 O.3     1  LIG1        0.0000
    591 O          28.5875    8.2525    8.2668 O.3     1  LIG1        0.0000
    592 O          29.7787   10.3156    8.2668 O.3     1  LIG1        0.0000
    593 SI         29.7787   11.6911    8.7531 Si      1  LIG1        0.0000
    594 O          29.7787   11.6911   10.2120 O.3     1  LIG1        0.0000
    595 O          34.5433    8.9402    6.3217 O.3     1  LIG1        0.0000
    596 SI         34.5433    8.9402    0.0000 Si      1  LIG1        0.0000
    597 O          34.5433   10.3156    0.4863 O.3     1  LIG1        0.0000
    598 SI         34.5433   11.6911    0.9726 Si      1  LIG1        0.0000
    599 O          35.7344    8.2525    0.4863 O.3     1  LIG1        0.0000
    600 O          33.3521    8.2525    0.4863 O.3     1  LIG1        0.0000
    601 O          34.5433   11.6911    2.4314 O.3     1  LIG1        0.0000
    602 SI         34.5433   11.6911    3.8903 Si      1  LIG1        0.0000
    603 O          34.5433   10.3156    4.3765 O.3     1  LIG1        0.0000
    604 SI         34.5433    8.9402    4.8628 Si      1  LIG1        0.0000
    605 O          35.7344    8.2525    4.3765 O.3     1  LIG1        0.0000
    606 O          33.3521    8.2525    4.3765 O.3     1  LIG1        0.0000
    607 SI         34.5433    8.9402    7.7805 Si      1  LIG1        0.0000
    608 O          35.7344    8.2525    8.2668 O.3     1  LIG1        0.0000
    609 O          33.3521    8.2525    8.2668 O.3     1  LIG1        0.0000
    610 O          34.5433   10.3156    8.2668 O.3     1  LIG1        0.0000
    611 SI         34.5433   11.6911    8.7531 Si      1  LIG1        0.0000
    612 O          34.5433   11.6911   10.2120 O.3     1  LIG1        0.0000
    613 O          32.1610   13.0665    6.3217 O.3     1  LIG1        0.0000
    614 SI         32.1610   13.0665    0.0000 Si      1  LIG1        0.0000
    615 O          32.1610   14.4419    0.4863 O.3     1  LIG1        0.0000
    616 SI         32.1610   15.8173    0.9726 Si      1  LIG1        0.0000
    617 O          33.3521   12.3788    0.4863 O.3     1  LIG1        0.0000
    618 O          30.9698   12.3788    0.4863 O.3     1  LIG1        0.0000
    619 O          32.1610   15.8173    2.4314 O.3     1  LIG1        0.0000
    620 SI         32.1610   15.8173    3.8903 Si      1  LIG1        0.0000
    621 O          32.1610   14.4419    4.3765 O.3     1  LIG1        0.0000
    622 SI         32.1610   13.0665    4.8628 Si      1  LIG1        0.0000
    623 O          33.3521   12.3788    4.3765 O.3     1  LIG1        0.0000
    624 O          30.9698   12.3788    4.3765 O.3     1  LIG1        0.0000
    625 SI         32.1610   13.0665    7.7805 Si      1  LIG1        0.0000
    626 O          33.3521   12.3788    8.2668 O.3     1  LIG1        0.0000
    627 O          30.9698   12.3788    8.2668 O.3     1  LIG1        0.0000
    628 O          32.1610   14.4419    8.2668 O.3     1  LIG1        0.0000
    629 SI         32.1610   15.8173    8.7531 Si      1  LIG1        0.0000
    630 O          32.1610   15.8173   10.2120 O.3     1  LIG1        0.0000
    631 O          36.9255   13.0665    6.3217 O.3     1  LIG1        0.0000
    632 SI         36.9255   13.0665    0.0000 Si      1  LIG1        0.0000
    633 O          36.9255   14.4419    0.4863 O.3     1  LIG1        0.0000
    634 SI         36.9255   15.8173    0.9726 Si      1  LIG1        0.0000
    635 O          38.1167   12.3788    0.4863 O.3     1  LIG1        0.0000
    636 O          35.7344   12.3788    0.4863 O.3     1  LIG1        0.0000
    637 O          36.9255   15.8173    2.4314 O.3     1  LIG1        0.0000
    638 SI         36.9255   15.8173    3.8903 Si      1  LIG1        0.0000
    639 O          36.9255   14.4419    4.3765 O.3     1  LIG1        0.0000
    640 SI         36.9255   13.0665    4.8628 Si      1  LIG1        0.0000
    641 O          38.1167   12.3788    4.3765 O.3     1  LIG1        0.0000
    642 O          35.7344   12.3788    4.3765 O.3     1  LIG1        0.0000
    643 SI         36.9255   13.0665    7.7805 Si      1  LIG1        0.0000
    644 O          38.1167   12.3788    8.2668 O.3     1  LIG1        0.0000
    645 O          35.7344   12.3788    8.2668 O.3     1  LIG1        0.0000
    646 O          36.9255   14.4419    8.2668 O.3     1  LIG1        0.0000
    647 SI         36.9255   15.8173    8.7531 Si      1  LIG1        0.0000
    648 O          36.9255   15.8173   10.2120 O.3     1  LIG1        0.0000
    649 O          39.3078    8.9402    6.3217 O.3     1  LIG1        0.0000
    650 SI         39.3078    8.9402    0.0000 Si      1  LIG1        0.0000
    651 O          39.3078   10.3156    0.4863 O.3     1  LIG1        0.0000
    652 SI         39.3078   11.6911    0.9726 Si      1  LIG1        0.0000
    653 O          40.4990    8.2525    0.4863 O.3     1  LIG1        0.0000
    654 O          38.1167    8.2525    0.4863 O.3     1  LIG1        0.0000
    655 O          39.3078   11.6911    2.4314 O.3     1  LIG1        0.0000
    656 SI         39.3078   11.6911    3.8903 Si      1  LIG1        0.0000
    657 O          39.3078   10.3156    4.3765 O.3     1  LIG1        0.0000
    658 SI         39.3078    8.9402    4.8628 Si      1  LIG1        0.0000
    659 O          40.4990    8.2525    4.3765 O.3     1  LIG1        0.0000
    660 O          38.1167    8.2525    4.3765 O.3     1  LIG1        0.0000
    661 SI         39.3078    8.9402    7.7805 Si      1  LIG1        0.0000
    662 O          40.4990    8.2525    8.2668 O.3     1  LIG1        0.0000
    663 O          38.1167    8.2525    8.2668 O.3     1  LIG1        0.0000
    664 O          39.3078   10.3156    8.2668 O.3     1  LIG1        0.0000
    665 SI         39.3078   11.6911    8.7531 Si      1  LIG1        0.0000
    666 O          39.3078   11.6911   10.2120 O.3     1  LIG1        0.0000
    667 O          44.0724    8.9402    6.3217 O.3     1  LIG1        0.0000
    668 SI         44.0724    8.9402    0.0000 Si      1  LIG1        0.0000
    669 O          44.0724   10.3156    0.4863 O.3     1  LIG1        0.0000
    670 SI         44.0724   11.6911    0.9726 Si      1  LIG1        0.0000
    671 O          45.2636    8.2525    0.4863 O.3     1  LIG1        0.0000
    672 O          42.8813    8.2525    0.4863 O.3     1  LIG1        0.0000
    673 O          44.0724   11.6911    2.4314 O.3     1  LIG1        0.0000
    674 SI         44.0724   11.6911    3.8903 Si      1  LIG1        0.0000
    675 O          44.0724   10.3156    4.3765 O.3     1  LIG1        0.0000
    676 SI         44.0724    8.9402    4.8628 Si      1  LIG1        0.0000
    677 O          45.2636    8.2525    4.3765 O.3     1  LIG1        0.0000
    678 O          42.8813    8.2525    4.3765 O.3     1  LIG1        0.0000
    679 SI         44.0724    8.9402    7.7805 Si      1  LIG1        0.0000
    680 O          45.2636    8.2525    8.2668 O.3     1  LIG1        0.0000
    681 O          42.8813    8.2525    8.2668 O.3     1  LIG1        0.0000
    682 O          44.0724   10.3156    8.2668 O.3     1  LIG1        0.0000
    683 SI         44.0724   11.6911    8.7531 Si      1  LIG1        0.0000
    684 O          44.0724   11.6911   10.2120 O.3     1  LIG1        0.0000
    685 O          41.6901   13.0665    6.3217 O.3     1  LIG1        0.0000
    686 SI         41.6901   13.0665    0.0000 Si      1  LIG1        0.0000
    687 O          41.6901   14.4419    0.4863 O.3     1  LIG1        0.0000
    688 SI         41.6901   15.8173    0.9726 Si      1  LIG1        0.0000
    689 O          42.8813   12.3788    0.4863 O.3     1  LIG1        0.0000
    690 O          40.4990   12.3788    0.4863 O.3     1  LIG1        0.0000
    691 O          41.6901   15.8173    2.4314 O.3     1  LIG1        0.0000
    692 SI         41.6901   15.8173    3.8903 Si      1  LIG1        0.0000
    693 O          41.6901   14.4419    4.3765 O.3     1  LIG1        0.0000
    694 SI         41.6901   13.0665    4.8628 Si      1  LIG1        0.0000
    695 O          42.8813   12.3788    4.3765 O.3     1  LIG1        0.0000
    696 O          40.4990   12.3788    4.3765 O.3     1  LIG1        0.0000
    697 SI         41.6901   13.0665    7.7805 Si      1  LIG1        0.0000
    698 O          42.8813   12.3788    8.2668 O.3     1  LIG1        0.0000
    699 O          40.4990   12.3788    8.2668 O.3     1  LIG1        0.0000
    700 O          41.6901   14.4419    8.2668 O.3     1  LIG1        0.0000
    701 SI         41.6901   15.8173    8.7531 Si      1  LIG1        0.0000
    702 O          41.6901   15.8173   10.2120 O.3     1  LIG1        0.0000
    703 O          46.4547   13.0665    6.3217 O.3     1  LIG1        0.0000
    704 SI         46.4547   13.0665    0.0000 Si      1  LIG1        0.0000
    705 O          46.4547   14.4419    0.4863 O.3     1  LIG1        0.0000
    706 SI         46.4547   15.8173    0.9726 Si      1  LIG1        0.0000
    707 O          47.6459   12.3788    0.4863 O.3     1  LIG1        0.0000
    708 O          45.2636   12.3788    0.4863 O.3     1  LIG1        0.0000
    709 O          46.4547   15.8173    2.4314 O.3     1  LIG1        0.0000
    710 SI         46.4547   15.8173    3.8903 Si      1  LIG1        0.0000
    711 O          46.4547   14.4419    4.3765 O.3     1  LIG1        0.0000
    712 SI         46.4547   13.0665    4.8628 Si      1  LIG1        0.0000
    713 O          47.6459   12.3788    4.3765 O.3     1  LIG1        0.0000
    714 O          45.2636   12.3788    4.3765 O.3     1  LIG1        0.0000
    715 SI         46.4547   13.0665    7.7805 Si      1  LIG1        0.0000
    716 O          47.6459   12.3788    8.2668 O.3     1  LIG1        0.0000
    717 O          45.2636   12.3788    8.2668 O.3     1  LIG1        0.0000
    718 O          46.4547   14.4419    8.2668 O.3     1  LIG1        0.0000
    719 SI         46.4547   15.8173    8.7531 Si      1  LIG1        0.0000
    720 O          46.4547   15.8173   10.2120 O.3     1  LIG1        0.0000
    721 O           1.1911   17.1927    6.3217 O.3     1  LIG1        0.0000
    722 SI          1.1911   17.1927    0.0000 Si      1  LIG1        0.0000
    723 O           1.1911   18.5681    0.4863 O.3     1  LIG1        0.0000
    724 SI          1.1911   19.9436    0.9726 Si      1  LIG1        0.0000
    725 O           2.3823   16.5050    0.4863 O.3     1  LIG1        0.0000
    726 O           0.0000   16.5050    0.4863 O.3     1  LIG1        0.0000
    727 O           1.1911   19.9436    2.4314 O.3     1  LIG1        0.0000
    728 SI          1.1911   19.9436    3.8903 Si      1  LIG1        0.0000
    729 O           1.1911   18.5681    4.3765 O.3     1  LIG1        0.0000
    730 SI          1.1911   17.1927    4.8628 Si      1  LIG1        0.0000
    731 O           2.3823   16.5050    4.3765 O.3     1  LIG1        0.0000
    732 O           0.0000   16.5050    4.3765 O.3     1  LIG1        0.0000
    733 SI          1.1911   17.1927    7.7805 Si      1  LIG1        0.0000
    734 O           2.3823   16.5050    8.2668 O.3     1  LIG1        0.0000
    735 O           0.0000   16.5050    8.2668 O.3     1  LIG1        0.0000
    736 O           1.1911   18.5681    8.2668 O.3     1  LIG1        0.0000
    737 SI          1.1911   19.9436    8.7531 Si      1  LIG1        0.0000
    738 O           1.1911   19.9436   10.2120 O.3     1  LIG1        0.0000
    739 O           5.9557   17.1927    6.3217 O.3     1  LIG1        0.0000
    740 SI          5.9557   17.1927    0.0000 Si      1  LIG1        0.0000
    741 O           5.9557   18.5681    0.4863 O.3     1  LIG1        0.0000
    742 SI          5.9557   19.9436    0.9726 Si      1  LIG1        0.0000
    743 O           7.1469   16.5050    0.4863 O.3     1  LIG1        0.0000
    744 O           4.7646   16.5050    0.4863 O.3     1  LIG1        0.0000
    745 O           5.9557   19.9436    2.4314 O.3     1  LIG1        0.0000
    746 SI          5.9557   19.9436    3.8903 Si      1  LIG1        0.0000
    747 O           5.9557   18.5681    4.3765 O.3     1  LIG1        0.0000
    748 SI          5.9557   17.1927    4.8628 Si      1  LIG1        0.0000
    749 O           7.1469   16.5050    4.3765 O.3     1  LIG1        0.0000
    750 O           4.7646   16.5050    4.3765 O.3     1  LIG1        0.0000
    751 SI          5.9557   17.1927    7.7805 Si      1  LIG1        0.0000
    752 O           7.1469   16.5050    8.2668 O.3     1  LIG1        0.0000
    753 O           4.7646   16.5050    8.2668 O.3     1  LIG1        0.0000
    754 O           5.9557   18.5681    8.2668 O.3     1  LIG1        0.0000
    755 SI          5.9557   19.9436    8.7531 Si      1  LIG1        0.0000
    756 O           5.9557   19.9436   10.2120 O.3     1  LIG1        0.0000
    757 O           3.5734   21.3190    6.3217 O.3     1  LIG1        0.0000
    758 SI          3.5734   21.3190    0.0000 Si      1  LIG1        0.0000
    759 O           3.5734   22.6944    0.4863 O.3     1  LIG1        0.0000
    760 SI          3.5734   24.0698    0.9726 Si      1  LIG1        0.0000
    761 O           4.7646   20.6313    0.4863 O.3     1  LIG1        0.0000
    762 O           2.3823   20.6313    0.4863 O.3     1  LIG1        0.0000
    763 O           3.5734   24.0698    2.4314 O.3     1  LIG1        0.0000
    764 SI          3.5734   24.0698    3.8903 Si      1  LIG1        0.0000
    765 O           3.5734   22.6944    4.3765 O.3     1  LIG1        0.0000
    766 SI          3.5734   21.3190    4.8628 Si      1  LIG1        0.0000
    767 O           4.7646   20.6313    4.3765 O.3     1  LIG1        0.0000
    768 O           2.3823   20.6313    4.3765 O.3     1  LIG1        0.0000
    769 SI          3.5734   21.3190    7.7805 Si      1  LIG1        0.0000
    770 O           4.7646   20.6313    8.2668 O.3     1  LIG1        0.0000
    771 O           2.3823   20.6313    8.2668 O.3     1  LIG1        0.0000
    772 O           3.5734   22.6944    8.2668 O.3     1  LIG1        0.0000
    773 SI          3.5734   24.0698    8.7531 Si      1  LIG1        0.0000
    774 O           3.5734   24.0698   10.2120 O.3     1  LIG1        0.0000
    775 O           8.3380   21.3190    6.3217 O.3     1  LIG1        0.0000
    776 SI          8.3380   21.3190    0.0000 Si      1  LIG1        0.0000
    777 O           8.3380   22.6944    0.4863 O.3     1  LIG1        0.0000
    778 SI          8.3380   24.0698    0.9726 Si      1  LIG1        0.0000
    779 O           9.5292   20.6313    0.4863 O.3     1  LIG1        0.0000
    780 O           7.1469   20.6313    0.4863 O.3     1  LIG1        0.0000
    781 O           8.3380   24.0698    2.4314 O.3     1  LIG1        0.0000
    782 SI          8.3380   24.0698    3.8903 Si      1  LIG1        0.0000
    783 O           8.3380   22.6944    4.3765 O.3     1  LIG1        0.0000
    784 SI          8.3380   21.3190    4.8628 Si      1  LIG1        0.0000
    785 O           9.5292   20.6313    4.3765 O.3     1  LIG1        0.0000
    786 O           7.1469   20.6313    4.3765 O.3     1  LIG1        0.0000
    787 SI          8.3380   21.3190    7.7805 Si      1  LIG1        0.0000
    788 O           9.5292   20.6313    8.2668 O.3     1  LIG1        0.0000
    789 O           7.1469   20.6313    8.2668 O.3     1  LIG1        0.0000
    790 O           8.3380   22.6944    8.2668 O.3     1  LIG1        0.0000
    791 SI          8.3380   24.0698    8.7531 Si      1  LIG1        0.0000
    792 O           8.3380   24.0698   10.2120 O.3     1  LIG1        0.0000
    793 O          10.7203   17.1927    6.3217 O.3     1  LIG1        0.0000
    794 SI         10.7203   17.1927    0.0000 Si      1  LIG1        0.0000
    795 O          10.7203   18.5681    0.4863 O.3     1  LIG1        0.0000
    796 SI         10.7203   19.9436    0.9726 Si      1  LIG1        0.0000
    797 O          11.9115   16.5050    0.4863 O.3     1  LIG1        0.0000
    798 O           9.5292   16.5050    0.4863 O.3     1  LIG1        0.0000
    799 O          10.7203   19.9436    2.4314 O.3     1  LIG1        0.0000
    800 SI         10.7203   19.9436    3.8903 Si      1  LIG1        0.0000
    801 O          10.7203   18.5681    4.3765 O.3     1  LIG1        0.0000
    802 SI         10.7203   17.1927    4.8628 Si      1  LIG1        0.0000
    803 O          11.9115   16.5050    4.3765 O.3     1  LIG1        0.0000
    804 O           9.5292   16.5050    4.3765 O.3     1  LIG1        0.0000
    805 SI         10.7203   17.1927    7.7805 Si      1  LIG1        0.0000
    806 O          11.9115   16.5050    8.2668 O.3     1  LIG1        0.0000
    807 O           9.5292   16.5050    8.2668 O.3     1  LIG1        0.0000
    808 O          10.7203   18.5681    8.2668 O.3     1  LIG1        0.0000
    809 SI         10.7203   19.9436    8.7531 Si      1  LIG1        0.0000
    810 O          10.7203   19.9436   10.2120 O.3     1  LIG1        0.0000
    811 O          15.4849   17.1927    6.3217 O.3     1  LIG1        0.0000
    812 SI         15.4849   17.1927    0.0000 Si      1  LIG1        0.0000
    813 O          15.4849   18.5681    0.4863 O.3     1  LIG1        0.0000
    814 SI         15.4849   19.9436    0.9726 Si      1  LIG1        0.0000
    815 O          16.6761   16.5050    0.4863 O.3     1  LIG1        0.0000
    816 O          14.2938   16.5050    0.4863 O.3     1  LIG1        0.0000
    817 O          15.4849   19.9436    2.4314 O.3     1  LIG1        0.0000
    818 SI         15.4849   19.9436    3.8903 Si      1  LIG1        0.0000
    819 O          15.4849   18.5681    4.3765 O.3     1  LIG1        0.0000
    820 SI         15.4849   17.1927    4.8628 Si      1  LIG1        0.0000
    821 O          16.6761   16.5050    4.3765 O.3     1  LIG1        0.0000
    822 O          14.2938   16.5050    4.3765 O.3     1  LIG1        0.0000
    823 SI         15.4849   17.1927    7.7805 Si      1  LIG1        0.0000
    824 O          16.6761   16.5050    8.2668 O.3     1  LIG1        0.0000
    825 O          14.2938   16.5050    8.2668 O.3     1  LIG1        0.0000
    826 O          15.4849   18.5681    8.2668 O.3     1  LIG1        0.0000
    827 SI         15.4849   19.9436    8.7531 Si      1  LIG1        0.0000
    828 O          15.4849   19.9436   10.2120 O.3     1  LIG1        0.0000
    829 O          13.1026   21.3190    6.3217 O.3     1  LIG1        0.0000
    830 SI         13.1026   21.3190    0.0000 Si      1  LIG1        0.0000
    831 O          13.1026   22.6944    0.4863 O.3     1  LIG1        0.0000
    832 SI         13.1026   24.0698    0.9726 Si      1  LIG1        0.0000
    833 O          14.2938   20.6313    0.4863 O.3     1  LIG1        0.0000
    834 O          11.9115   20.6313    0.4863 O.3     1  LIG1        0.0000
    835 O          13.1026   24.0698    2.4314 O.3     1  LIG1        0.0000
    836 SI         13.1026   24.0698    3.8903 Si      1  LIG1        0.0000
    837 O          13.1026   22.6944    4.3765 O.3     1  LIG1        0.0000
    838 SI         13.1026   21.3190    4.8628 Si      1  LIG1        0.0000
    839 O          14.2938   20.6313    4.3765 O.3     1  LIG1        0.0000
    840 O          11.9115   20.6313    4.3765 O.3     1  LIG1        0.0000
    841 SI         13.1026   21.3190    7.7805 Si      1  LIG1        0.0000
    842 O          14.2938   20.6313    8.2668 O.3     1  LIG1        0.0000
    843 O          11.9115   20.6313    8.2668 O.3     1  LIG1        0.0000
    844 O          13.1026   22.6944    8.2668 O.3     1  LIG1        0.0000
    845 SI         13.1026   24.0698    8.7531 Si      1  LIG1        0.0000
    846 O          13.1026   24.0698   10.2120 O.3     1  LIG1        0.0000
    847 O          17.8672   21.3190    6.3217 O.3     1  LIG1        0.0000
    848 SI         17.8672   21.3190    0.0000 Si      1  LIG1        0.0000
    849 O          17.8672   22.6944    0.4863 O.3     1  LIG1        0.0000
    850 SI         17.8672   24.0698    0.9726 Si      1  LIG1        0.0000
    851 O          19.0583   20.6313    0.4863 O.3     1  LIG1        0.0000
    852 O          16.6761   20.6313    0.4863 O.3     1  LIG1        0.0000
    853 O          17.8672   24.0698    2.4314 O.3     1  LIG1        0.0000
    854 SI         17.8672   24.0698    3.8903 Si      1  LIG1        0.0000
    855 O          17.8672   22.6944    4.3765 O.3     1  LIG1        0.0000
    856 SI         17.8672   21.3190    4.8628 Si      1  LIG1        0.0000
    857 O          19.0583   20.6313    4.3765 O.3     1  LIG1        0.0000
    858 O          16.6761   20.6313    4.3765 O.3     1  LIG1        0.0000
    859 SI         17.8672   21.3190    7.7805 Si      1  LIG1        0.0000
    860 O          19.0583   20.6313    8.2668 O.3     1  LIG1        0.0000
    861 O          16.6761   20.6313    8.2668 O.3     1  LIG1        0.0000
    862 O          17.8672   22.6944    8.2668 O.3     1  LIG1        0.0000
    863 SI         17.8672   24.0698    8.7531 Si      1  LIG1        0.0000
    864 O          17.8672   24.0698   10.2120 O.3     1  LIG1        0.0000
    865 O          20.2495   17.1927    6.3217 O.3     1  LIG1        0.0000
    866 SI         20.2495   17.1927    0.0000 Si      1  LIG1        0.0000
    867 O          20.2495   18.5681    0.4863 O.3     1  LIG1        0.0000
    868 SI         20.2495   19.9436    0.9726 Si      1  LIG1        0.0000
    869 O          21.4406   16.5050    0.4863 O.3     1  LIG1        0.0000
    870 O          19.0583   16.5050    0.4863 O.3     1  LIG1        0.0000
    871 O          20.2495   19.9436    2.4314 O.3     1  LIG1        0.0000
    872 SI         20.2495   19.9436    3.8903 Si      1  LIG1        0.0000
    873 O          20.2495   18.5681    4.3765 O.3     1  LIG1        0.0000
    874 SI         20.2495   17.1927    4.8628 Si      1  LIG1        0.0000
    875 O          21.4406   16.5050    4.3765 O.3     1  LIG1        0.0000
    876 O          19.0583   16.5050    4.3765 O.3     1  LIG1        0.0000
    877 SI         20.2495   17.1927    7.7805 Si      1  LIG1        0.0000
    878 O          21.4406   16.5050    8.2668 O.3     1  LIG1        0.0000
    879 O          19.0583   16.5050    8.2668 O.3     1  LIG1        0.0000
    880 O          20.2495   18.5681    8.2668 O.3     1  LIG1        0.0000
    881 SI         20.2495   19.9436    8.7531 Si      1  LIG1        0.0000
    882 O          20.2495   19.9436   10.2120 O.3     1  LIG1        0.0000
    883 O          25.0141   17.1927    6.3217 O.3     1  LIG1        0.0000
    884 SI         25.0141   17.1927    0.0000 Si      1  LIG1        0.0000
    885 O          25.0141   18.5681    0.4863 O.3     1  LIG1        0.0000
    886 SI         25.0141   19.9436    0.9726 Si      1  LIG1        0.0000
    887 O          26.2052   16.5050    0.4863 O.3     1  LIG1        0.0000
    888 O          23.8229   16.5050    0.4863 O.3     1  LIG1        0.0000
    889 O          25.0141   19.9436    2.4314 O.3     1  LIG1        0.0000
    890 SI         25.0141   19.9436    3.8903 Si      1  LIG1        0.0000
    891 O          25.0141   18.5681    4.3765 O.3     1  LIG1        0.0000
    892 SI         25.0141   17.1927    4.8628 Si      1  LIG1        0.0000
    893 O          26.2052   16.5050    4.3765 O.3     1  LIG1        0.0000
    894 O          23.8229   16.5050    4.3765 O.3     1  LIG1        0.0000
    895 SI         25.0141   17.1927    7.7805 Si      1  LIG1        0.0000
    896 O          26.2052   16.5050    8.2668 O.3     1  LIG1        0.0000
    897 O          23.8229   16.5050    8.2668 O.3     1  LIG1        0.0000
    898 O          25.0141   18.5681    8.2668 O.3     1  LIG1        0.0000
    899 SI         25.0141   19.9436    8.7531 Si      1  LIG1        0.0000
    900 O          25.0141   19.9436   10.2120 O.3     1  LIG1        0.0000
    901 O          22.6318   21.3190    6.3217 O.3     1  LIG1        0.0000
    902 SI         22.6318   21.3190    0.0000 Si      1  LIG1        0.0000
    903 O          22.6318   22.6944    0.4863 O.3     1  LIG1        0.0000
    904 SI         22.6318   24.0698    0.9726 Si      1  LIG1        0.0000
    905 O          23.8229   20.6313    0.4863 O.3     1  LIG1        0.0000
    906 O          21.4406   20.6313    0.4863 O.3     1  LIG1        0.0000
    907 O          22.6318   24.0698    2.4314 O.3     1  LIG1        0.0000
    908 SI         22.6318   24.0698    3.8903 Si      1  LIG1        0.0000
    909 O          22.6318   22.6944    4.3765 O.3     1  LIG1        0.0000
    910 SI         22.6318   21.3190    4.8628 Si      1  LIG1        0.0000
    911 O          23.8229   20.6313    4.3765 O.3     1  LIG1        0.0000
    912 O          21.4406   20.6313    4.3765 O.3     1  LIG1        0.0000
    913 SI         22.6318   21.3190    7.7805 Si      1  LIG1        0.0000
    914 O          23.8229   20.6313    8.2668 O.3     1  LIG1        0.0000
    915 O          21.4406   20.6313    8.2668 O.3     1  LIG1        0.0000
    916 O          22.6318   22.6944    8.2668 O.3     1  LIG1        0.0000
    917 SI         22.6318   24.0698    8.7531 Si      1  LIG1        0.0000
    918 O          22.6318   24.0698   10.2120 O.3     1  LIG1        0.0000
    919 O          27.3964   21.3190    6.3217 O.3     1  LIG1        0.0000
    920 SI         27.3964   21.3190    0.0000 Si      1  LIG1        0.0000
    921 O          27.3964   22.6944    0.4863 O.3     1  LIG1        0.0000
    922 SI         27.3964   24.0698    0.9726 Si      1  LIG1        0.0000
    923 O          28.5875   20.6313    0.4863 O.3     1  LIG1        0.0000
    924 O          26.2052   20.6313    0.4863 O.3     1  LIG1        0.0000
    925 O          27.3964   24.0698    2.4314 O.3     1  LIG1        0.0000
    926 SI         27.3964   24.0698    3.8903 Si      1  LIG1        0.0000
    927 O          27.3964   22.6944    4.3765 O.3     1  LIG1        0.0000
    928 SI         27.3964   21.3190    4.8628 Si      1  LIG1        0.0000
    929 O          28.5875   20.6313    4.3765 O.3     1  LIG1        0.0000
    930 O          26.2052   20.6313    4.3765 O.3     1  LIG1        0.0000
    931 SI         27.3964   21.3190    7.7805 Si      1  LIG1        0.0000
    932 O          28.5875   20.6313    8.2668 O.3     1  LIG1        0.0000
    933 O          26.2052   20.6313    8.2668 O.3     1  LIG1        0.0000
    934 O          27.3964   22.6944    8.2668 O.3     1  LIG1        0.0000
    935 SI         27.3964   24.0698    8.7531 Si      1  LIG1        0.0000
    936 O          27.3964   24.0698   10.2120 O.3     1  LIG1        0.0000
    937 O          29.7787   17.1927    6.3217 O.3     1  LIG1        0.0000
    938 SI         29.7787   17.1927    0.0000 Si      1  LIG1        0.0000
    939 O          29.7787   18.5681    0.4863 O.3     1  LIG1        0.0000
    940 SI         29.7787   19.9436    0.9726 Si      1  LIG1        0.0000
    941 O          30.9698   16.5050    0.4863 O.3     1  LIG1        0.0000
    942 O          28.5875   16.5050    0.4863 O.3     1  LIG1        0.0000
    943 O          29.7787   19.9436    2.4314 O.3     1  LIG1        0.0000
    944 SI         29.7787   19.9436    3.8903 Si      1  LIG1        0.0000
    945 O          29.7787   18.5681    4.3765 O.3     1  LIG1        0.0000
    946 SI         29.7787   17.1927    4.8628 Si      1  LIG1        0.0000
    947 O          30.9698   16.5050    4.3765 O.3     1  LIG1        0.0000
    948 O          28.5875   16.5050    4.3765 O.3     1  LIG1        0.0000
    949 SI         29.7787   17.1927    7.7805 Si      1  LIG1        0.0000
    950 O          30.9698   16.5050    8.2668 O.3     1  LIG1        0.0000
    951 O          28.5875   16.5050    8.2668 O.3     1  LIG1        0.0000
    952 O          29.7787   18.5681    8.2668 O.3     1  LIG1        0.0000
    953 SI         29.7787   19.9436    8.7531 Si      1  LIG1        0.0000
    954 O          29.7787   19.9436   10.2120 O.3     1  LIG1        0.0000
    955 O          34.5433   17.1927    6.3217 O.3     1  LIG1        0.0000
    956 SI         34.5433   17.1927    0.0000 Si      1  LIG1        0.0000
    957 O          34.5433   18.5681    0.4863 O.3     1  LIG1        0.0000
    958 SI         34.5433   19.9436    0.9726 Si      1  LIG1        0.0000
    959 O          35.7344   16.5050    0.4863 O.3     1  LIG1        0.0000
    960 O          33.3521   16.5050    0.4863 O.3     1  LIG1        0.0000
    961 O          34.5433   19.9436    2.4314 O.3     1  LIG1        0.0000
    962 SI         34.5433   19.9436    3.8903 Si      1  LIG1        0.0000
    963 O          34.5433   18.5681    4.3765 O.3     1  LIG1        0.0000
    964 SI         34.5433   17.1927    4.8628 Si      1  LIG1        0.0000
    965 O          35.7344   16.5050    4.3765 O.3     1  LIG1        0.0000
    966 O          33.3521   16.5050    4.3765 O.3     1  LIG1        0.0000
    967 SI         34.5433   17.1927    7.7805 Si      1  LIG1        0.0000
    968 O          35.7344   16.5050    8.2668 O.3     1  LIG1        0.0000
    969 O          33.3521   16.5050    8.2668 O.3     1  LIG1        0.0000
    970 O          34.5433   18.5681    8.2668 O.3     1  LIG1        0.0000
    971 SI         34.5433   19.9436    8.7531 Si      1  LIG1        0.0000
    972 O          34.5433   19.9436   10.2120 O.3     1  LIG1        0.0000
    973 O          32.1610   21.3190    6.3217 O.3     1  LIG1        0.0000
    974 SI         32.1610   21.3190    0.0000 Si      1  LIG1        0.0000
    975 O          32.1610   22.6944    0.4863 O.3     1  LIG1        0.0000
    976 SI         32.1610   24.0698    0.9726 Si      1  LIG1        0.0000
    977 O          33.3521   20.6313    0.4863 O.3     1  LIG1        0.0000
    978 O          30.9698   20.6313    0.4863 O.3     1  LIG1        0.0000
    979 O          32.1610   24.0698    2.4314 O.3     1  LIG1        0.0000
    980 SI         32.1610   24.0698    3.8903 Si      1  LIG1        0.0000
    981 O          32.1610   22.6944    4.3765 O.3     1  LIG1        0.0000
    982 SI         32.1610   21.3190    4.8628 Si      1  LIG1        0.0000
    983 O          33.3521   20.6313    4.3765 O.3     1  LIG1        0.0000
    984 O          30.9698   20.6313    4.3765 O.3     1  LIG1        0.0000
    985 SI         32.1610   21.3190    7.7805 Si      1  LIG1        0.0000
    986 O          33.3521   20.6313    8.2668 O.3     1  LIG1        0.0000
    987 O          30.9698   20.6313    8.2668 O.3     1  LIG1        0.0000
    988 O          32.1610   22.6944    8.2668 O.3     1  LIG1        0.0000
    989 SI         32.1610   24.0698    8.7531 Si      1  LIG1        0.0000
    990 O          32.1610   24.0698   10.2120 O.3     1  LIG1        0.0000
    991 O          36.9255   21.3190    6.3217 O.3     1  LIG1        0.0000
    992 SI         36.9255   21.3190    0.0000 Si      1  LIG1        0.0000
    993 O          36.9255   22.6944    0.4863 O.3     1  LIG1        0.0000
    994 SI         36.9255   24.0698    0.9726 Si      1  LIG1        0.0000
    995 O          38.1167   20.6313    0.4863 O.3     1  LIG1        0.0000
    996 O          35.7344   20.6313    0.4863 O.3     1  LIG1        0.0000
    997 O          36.9255   24.0698    2.4314 O.3     1  LIG1        0.0000
    998 SI         36.9255   24.0698    3.8903 Si      1  LIG1        0.0000
    999 O          36.9255   22.6944    4.3765 O.3     1  LIG1        0.0000
   1000 SI         36.9255   21.3190    4.8628 Si      1  LIG1        0.0000
   1001 O          38.1167   20.6313    4.3765 O.3     1  LIG1        0.0000
   1002 O          35.7344   20.6313    4.3765 O.3     1  LIG1        0.0000
   1003 SI         36.9255   21.3190    7.7805 Si      1  LIG1        0.0000
   1004 O          38.1167   20.6313    8.2668 O.3     1  LIG1        0.0000
   1005 O          35.7344   20.6313    8.2668 O.3     1  LIG1        0.0000
   1006 O          36.9255   22.6944    8.2668 O.3     1  LIG1        0.0000
   1007 SI         36.9255   24.0698    8.7531 Si      1  LIG1        0.0000
   1008 O          36.9255   24.0698   10.2120 O.3     1  LIG1        0.0000
   1009 O          39.3078   17.1927    6.3217 O.3     1  LIG1        0.0000
   1010 SI         39.3078   17.1927    0.0000 Si      1  LIG1        0.0000
   1011 O          39.3078   18.5681    0.4863 O.3     1  LIG1        0.0000
   1012 SI         39.3078   19.9436    0.9726 Si      1  LIG1        0.0000
   1013 O          40.4990   16.5050    0.4863 O.3     1  LIG1        0.0000
   1014 O          38.1167   16.5050    0.4863 O.3     1  LIG1        0.0000
   1015 O          39.3078   19.9436    2.4314 O.3     1  LIG1        0.0000
   1016 SI         39.3078   19.9436    3.8903 Si      1  LIG1        0.0000
   1017 O          39.3078   18.5681    4.3765 O.3     1  LIG1        0.0000
   1018 SI         39.3078   17.1927    4.8628 Si      1  LIG1        0.0000
   1019 O          40.4990   16.5050    4.3765 O.3     1  LIG1        0.0000
   1020 O          38.1167   16.5050    4.3765 O.3     1  LIG1        0.0000
   1021 SI         39.3078   17.1927    7.7805 Si      1  LIG1        0.0000
   1022 O          40.4990   16.5050    8.2668 O.3     1  LIG1        0.0000
   1023 O          38.1167   16.5050    8.2668 O.3     1  LIG1        0.0000
   1024 O          39.3078   18.5681    8.2668 O.3     1  LIG1        0.0000
   1025 SI         39.3078   19.9436    8.7531 Si      1  LIG1        0.0000
   1026 O          39.3078   19.9436   10.2120 O.3     1  LIG1        0.0000
   1027 O          44.0724   17.1927    6.3217 O.3     1  LIG1        0.0000
   1028 SI         44.0724   17.1927    0.0000 Si      1  LIG1        0.0000
   1029 O          44.0724   18.5681    0.4863 O.3     1  LIG1        0.0000
   1030 SI         44.0724   19.9436    0.9726 Si      1  LIG1        0.0000
   1031 O          45.2636   16.5050    0.4863 O.3     1  LIG1        0.0000
   1032 O          42.8813   16.5050    0.4863 O.3     1  LIG1        0.0000
   1033 O          44.0724   19.9436    2.4314 O.3     1  LIG1        0.0000
   1034 SI         44.0724   19.9436    3.8903 Si      1  LIG1        0.0000
   1035 O          44.0724   18.5681    4.3765 O.3     1  LIG1        0.0000
   1036 SI         44.0724   17.1927    4.8628 Si      1  LIG1        0.0000
   1037 O          45.2636   16.5050    4.3765 O.3     1  LIG1        0.0000
   1038 O          42.8813   16.5050    4.3765 O.3     1  LIG1        0.0000
   1039 SI         44.0724   17.1927    7.7805 Si      1  LIG1        0.0000
   1040 O          45.2636   16.5050    8.2668 O.3     1  LIG1        0.0000
   1041 O          42.8813   16.5050    8.2668 O.3     1  LIG1        0.0000
   1042 O          44.0724   18.5681    8.2668 O.3     1  LIG1        0.0000
   1043 SI         44.0724   19.9436    8.7531 Si      1  LIG1        0.0000
   1044 O          44.0724   19.9436   10.2120 O.3     1  LIG1        0.0000
   1045 O          41.6901   21.3190    6.3217 O.3     1  LIG1        0.0000
   1046 SI         41.6901   21.3190    0.0000 Si      1  LIG1        0.0000
   1047 O          41.6901   22.6944    0.4863 O.3     1  LIG1        0.0000
   1048 SI         41.6901   24.0698    0.9726 Si      1  LIG1        0.0000
   1049 O          42.8813   20.6313    0.4863 O.3     1  LIG1        0.0000
   1050 O          40.4990   20.6313    0.4863 O.3     1  LIG1        0.0000
   1051 O          41.6901   24.0698    2.4314 O.3     1  LIG1        0.0000
   1052 SI         41.6901   24.0698    3.8903 Si      1  LIG1        0.0000
   1053 O          41.6901   22.6944    4.3765 O.3     1  LIG1        0.0000
   1054 SI         41.6901   21.3190    4.8628 Si      1  LIG1        0.0000
   1055 O          42.8813   20.6313    4.3765 O.3     1  LIG1        0.0000
   1056 O          40.4990   20.6313    4.3765 O.3     1  LIG1        0.0000
   1057 SI         41.6901   21.3190    7.7805 Si      1  LIG1        0.0000
   1058 O          42.8813   20.6313    8.2668 O.3     1  LIG1        0.0000
   1059 O          40.4990   20.6313    8.2668 O.3     1  LIG1        0.0000
   1060 O          41.6901   22.6944    8.2668 O.3     1  LIG1        0.0000
   1061 SI         41.6901   24.0698    8.7531 Si      1  LIG1        0.0000
   1062 O          41.6901   24.0698   10.2120 O.3     1  LIG1        0.0000
   1063 O          46.4547   21.3190    6.3217 O.3     1  LIG1        0.0000
   1064 SI         46.4547   21.3190    0.0000 Si      1  LIG1        0.0000
   1065 O          46.4547   22.6944    0.4863 O.3     1  LIG1        0.0000
   1066 SI         46.4547   24.0698    0.9726 Si      1  LIG1        0.0000
   1067 O          47.6459   20.6313    0.4863 O.3     1  LIG1        0.0000
   1068 O          45.2636   20.6313    0.4863 O.3     1  LIG1        0.0000
   1069 O          46.4547   24.0698    2.4314 O.3     1  LIG1        0.0000
   1070 SI         46.4547   24.0698    3.8903 Si      1  LIG1        0.0000
   1071 O          46.4547   22.6944    4.3765 O.3     1  LIG1        0.0000
   1072 SI         46.4547   21.3190    4.8628 Si      1  LIG1        0.0000
   1073 O          47.6459   20.6313    4.3765 O.3     1  LIG1        0.0000
   1074 O          45.2636   20.6313    4.3765 O.3     1  LIG1        0.0000
   1075 SI         46.4547   21.3190    7.7805 Si      1  LIG1        0.0000
   1076 O          47.6459   20.6313    8.2668 O.3     1  LIG1        0.0000
   1077 O          45.2636   20.6313    8.2668 O.3     1  LIG1        0.0000
   1078 O          46.4547   22.6944    8.2668 O.3     1  LIG1        0.0000
   1079 SI         46.4547   24.0698    8.7531 Si      1  LIG1        0.0000
   1080 O          46.4547   24.0698   10.2120 O.3     1  LIG1        0.0000
   1081 O           1.1911   25.4452    6.3217 O.3     1  LIG1        0.0000
   1082 SI          1.1911   25.4452    0.0000 Si      1  LIG1        0.0000
   1083 O           1.1911   26.8206    0.4863 O.3     1  LIG1        0.0000
   1084 SI          1.1911   28.1961    0.9726 Si      1  LIG1        0.0000
   1085 O           2.3823   24.7575    0.4863 O.3     1  LIG1        0.0000
   1086 O           0.0000   24.7575    0.4863 O.3     1  LIG1        0.0000
   1087 O           1.1911   28.1961    2.4314 O.3     1  LIG1        0.0000
   1088 SI          1.1911   28.1961    3.8903 Si      1  LIG1        0.0000
   1089 O           1.1911   26.8206    4.3765 O.3     1  LIG1        0.0000
   1090 SI          1.1911   25.4452    4.8628 Si      1  LIG1        0.0000
   1091 O           2.3823   24.7575    4.3765 O.3     1  LIG1        0.0000
   1092 O           0.0000   24.7575    4.3765 O.3     1  LIG1        0.0000
   1093 SI          1.1911   25.4452    7.7805 Si      1  LIG1        0.0000
   1094 O           2.3823   24.7575    8.2668 O.3     1  LIG1        0.0000
   1095 O           0.0000   24.7575    8.2668 O.3     1  LIG1        0.0000
   1096 O           1.1911   26.8206    8.2668 O.3     1  LIG1        0.0000
   1097 SI          1.1911   28.1961    8.7531 Si      1  LIG1        0.0000
   1098 O           1.1911   28.1961   10.2120 O.3     1  LIG1        0.0000
   1099 O           5.9557   25.4452    6.3217 O.3     1  LIG1        0.0000
   1100 SI          5.9557   25.4452    0.0000 Si      1  LIG1        0.0000
   1101 O           5.9557   26.8206    0.4863 O.3     1  LIG1        0.0000
   1102 SI          5.9557   28.1961    0.9726 Si      1  LIG1        0.0000
   1103 O           7.1469   24.7575    0.4863 O.3     1  LIG1        0.0000
   1104 O           4.7646   24.7575    0.4863 O.3     1  LIG1        0.0000
   1105 O           5.9557   28.1961    2.4314 O.3     1  LIG1        0.0000
   1106 SI          5.9557   28.1961    3.8903 Si      1  LIG1        0.0000
   1107 O           5.9557   26.8206    4.3765 O.3     1  LIG1        0.0000
   1108 SI          5.9557   25.4452    4.8628 Si      1  LIG1        0.0000
   1109 O           7.1469   24.7575    4.3765 O.3     1  LIG1        0.0000
   1110 O           4.7646   24.7575    4.3765 O.3     1  LIG1        0.0000
   1111 SI          5.9557   25.4452    7.7805 Si      1  LIG1        0.0000
   1112 O           7.1469   24.7575    8.2668 O.3     1  LIG1        0.0000
   1113 O           4.7646   24.7575    8.2668 O.3     1  LIG1        0.0000
   1114 O           5.9557   26.8206    8.2668 O.3     1  LIG1        0.0000
   1115 SI          5.9557   28.1961    8.7531 Si      1  LIG1        0.0000
   1116 O           5.9557   28.1961   10.2120 O.3     1  LIG1        0.0000
   1117 O           3.5734   29.5715    6.3217 O.3     1  LIG1        0.0000
   1118 SI          3.5734   29.5715    0.0000 Si      1  LIG1        0.0000
   1119 O           3.5734   30.9469    0.4863 O.3     1  LIG1        0.0000
   1120 SI          3.5734   32.3223    0.9726 Si      1  LIG1        0.0000
   1121 O           4.7646   28.8838    0.4863 O.3     1  LIG1        0.0000
   1122 O           2.3823   28.8838    0.4863 O.3     1  LIG1        0.0000
   1123 O           3.5734   32.3223    2.4314 O.3     1  LIG1        0.0000
   1124 SI          3.5734   32.3223    3.8903 Si      1  LIG1        0.0000
   1125 O           3.5734   30.9469    4.3765 O.3     1  LIG1        0.0000
   1126 SI          3.5734   29.5715    4.8628 Si      1  LIG1        0.0000
   1127 O           4.7646   28.8838    4.3765 O.3     1  LIG1        0.0000
   1128 O           2.3823   28.8838    4.3765 O.3     1  LIG1        0.0000
   1129 SI          3.5734   29.5715    7.7805 Si      1  LIG1        0.0000
   1130 O           4.7646   28.8838    8.2668 O.3     1  LIG1        0.0000
   1131 O           2.3823   28.8838    8.2668 O.3     1  LIG1        0.0000
   1132 O           3.5734   30.9469    8.2668 O.3     1  LIG1        0.0000
   1133 SI          3.5734   32.3223    8.7531 Si      1  LIG1        0.0000
   1134 O           3.5734   32.3223   10.2120 O.3     1  LIG1        0.0000
   1135 O           8.3380   29.5715    6.3217 O.3     1  LIG1        0.0000
   1136 SI          8.3380   29.5715    0.0000 Si      1  LIG1        0.0000
   1137 O           8.3380   30.9469    0.4863 O.3     1  LIG1        0.0000
   1138 SI          8.3380   32.3223    0.9726 Si      1  LIG1        0.0000
   1139 O           9.5292   28.8838    0.4863 O.3     1  LIG1        0.0000
   1140 O           7.1469   28.8838    0.4863 O.3     1  LIG1        0.0000
   1141 O           8.3380   32.3223    2.4314 O.3     1  LIG1        0.0000
   1142 SI          8.3380   32.3223    3.8903 Si      1  LIG1        0.0000
   1143 O           8.3380   30.9469    4.3765 O.3     1  LIG1        0.0000
   1144 SI          8.3380   29.5715    4.8628 Si      1  LIG1        0.0000
   1145 O           9.5292   28.8838    4.3765 O.3     1  LIG1        0.0000
   1146 O           7.1469   28.8838    4.3765 O.3     1  LIG1        0.0000
   1147 SI          8.3380   29.5715    7.7805 Si      1  LIG1        0.0000
   1148 O           9.5292   28.8838    8.2668 O.3     1  LIG1        0.0000
   1149 O           7.1469   28.8838    8.2668 O.3     1  LIG1        0.0000
   1150 O           8.3380   30.9469    8.2668 O.3     1  LIG1        0.0000
   1151 SI          8.3380   32.3223    8.7531 Si      1  LIG1        0.0000
   1152 O           8.3380   32.3223   10.2120 O.3     1  LIG1        0.0000
   1153 O          10.7203   25.4452    6.3217 O.3     1  LIG1        0.0000
   1154 SI         10.7203   25.4452    0.0000 Si      1  LIG1        0.0000
   1155 O          10.7203   26.8206    0.4863 O.3     1  LIG1        0.0000
   1156 SI         10.7203   28.1961    0.9726 Si      1  LIG1        0.0000
   1157 O          11.9115   24.7575    0.4863 O.3     1  LIG1        0.0000
   1158 O           9.5292   24.7575    0.4863 O.3     1  LIG1        0.0000
   1159 O          10.7203   28.1961    2.4314 O.3     1  LIG1        0.0000
   1160 SI         10.7203   28.1961    3.8903 Si      1  LIG1        0.0000
   1161 O          10.7203   26.8206    4.3765 O.3     1  LIG1        0.0000
   1162 SI         10.7203   25.4452    4.8628 Si      1  LIG1        0.0000
   1163 O          11.9115   24.7575    4.3765 O.3     1  LIG1        0.0000
   1164 O           9.5292   24.7575    4.3765 O.3     1  LIG1        0.0000
   1165 SI         10.7203   25.4452    7.7805 Si      1  LIG1        0.0000
   1166 O          11.9115   24.7575    8.2668 O.3     1  LIG1        0.0000
   1167 O           9.5292   24.7575    8.2668 O.3     1  LIG1        0.0000
   1168 O          10.7203   26.8206    8.2668 O.3     1  LIG1        0.0000
   1169 SI         10.7203   28.1961    8.7531 Si      1  LIG1        0.0000
   1170 O          10.7203   28.1961   10.2120 O.3     1  LIG1        0.0000
   1171 O          15.4849   25.4452    6.3217 O.3     1  LIG1        0.0000
   1172 SI         15.4849   25.4452    0.0000 Si      1  LIG1        0.0000
   1173 O          15.4849   26.8206    0.4863 O.3     1  LIG1        0.0000
   1174 SI         15.4849   28.1961    0.9726 Si      1  LIG1        0.0000
   1175 O          16.6761   24.7575    0.4863 O.3     1  LIG1        0.0000
   1176 O          14.2938   24.7575    0.4863 O.3     1  LIG1        0.0000
   1177 O          15.4849   28.1961    2.4314 O.3     1  LIG1        0.0000
   1178 SI         15.4849   28.1961    3.8903 Si      1  LIG1        0.0000
   1179 O          15.4849   26.8206    4.3765 O.3     1  LIG1        0.0000
   1180 SI         15.4849   25.4452    4.8628 Si      1  LIG1        0.0000
   1181 O          16.6761   24.7575    4.3765 O.3     1  LIG1        0.0000
   1182 O          14.2938   24.7575    4.3765 O.3     1  LIG1        0.0000
   1183 SI         15.4849   25.4452    7.7805 Si      1  LIG1        0.0000
   1184 O          16.6761   24.7575    8.2668 O.3     1  LIG1        0.0000
   1185 O          14.2938   24.7575    8.2668 O.3     1  LIG1        0.0000
   1186 O          15.4849   26.8206    8.2668 O.3     1  LIG1        0.0000
   1187 SI         15.4849   28.1961    8.7531 Si      1  LIG1        0.0000
   1188 O          15.4849   28.1961   10.2120 O.3     1  LIG1        0.0000
   1189 O          13.1026   29.5715    6.3217 O.3     1  LIG1        0.0000
   1190 SI         13.1026   29.5715    0.0000 Si      1  LIG1        0.0000
   1191 O          13.1026   30.9469    0.4863 O.3     1  LIG1        0.0000
   1192 SI         13.1026   32.3223    0.9726 Si      1  LIG1        0.0000
   1193 O          14.2938   28.8838    0.4863 O.3     1  LIG1        0.0000
   1194 O          11.9115   28.8838    0.4863 O.3     1  LIG1        0.0000
   1195 O          13.1026   32.3223    2.4314 O.3     1  LIG1        0.0000
   1196 SI         13.1026   32.3223    3.8903 Si      1  LIG1        0.0000
   1197 O          13.1026   30.9469    4.3765 O.3     1  LIG1        0.0000
   1198 SI         13.1026   29.5715    4.8628 Si      1  LIG1        0.0000
   1199 O          14.2938   28.8838    4.3765 O.3     1  LIG1        0.0000
   1200 O          11.9115   28.8838    4.3765 O.3     1  LIG1        0.0000
   1201 SI         13.1026   29.5715    7.7805 Si      1  LIG1        0.0000
   1202 O          14.2938   28.8838    8.2668 O.3     1  LIG1        0.0000
   1203 O          11.9115   28.8838    8.2668 O.3     1  LIG1        0.0000
   1204 O          13.1026   30.9469    8.2668 O.3     1  LIG1        0.0000
   1205 SI         13.1026   32.3223    8.7531 Si      1  LIG1        0.0000
   1206 O          13.1026   32.3223   10.2120 O.3     1  LIG1        0.0000
   1207 O          17.8672   29.5715    6.3217 O.3     1  LIG1        0.0000
   1208 SI         17.8672   29.5715    0.0000 Si      1  LIG1        0.0000
   1209 O          17.8672   30.9469    0.4863 O.3     1  LIG1        0.0000
   1210 SI         17.8672   32.3223    0.9726 Si      1  LIG1        0.0000
   1211 O          19.0583   28.8838    0.4863 O.3     1  LIG1        0.0000
   1212 O          16.6761   28.8838    0.4863 O.3     1  LIG1        0.0000
   1213 O          17.8672   32.3223    2.4314 O.3     1  LIG1        0.0000
   1214 SI         17.8672   32.3223    3.8903 Si      1  LIG1        0.0000
   1215 O          17.8672   30.9469    4.3765 O.3     1  LIG1        0.0000
   1216 SI         17.8672   29.5715    4.8628 Si      1  LIG1        0.0000
   1217 O          19.0583   28.8838    4.3765 O.3     1  LIG1        0.0000
   1218 O          16.6761   28.8838    4.3765 O.3     1  LIG1        0.0000
   1219 SI         17.8672   29.5715    7.7805 Si      1  LIG1        0.0000
   1220 O          19.0583   28.8838    8.2668 O.3     1  LIG1        0.0000
   1221 O          16.6761   28.8838    8.2668 O.3     1  LIG1        0.0000
   1222 O          17.8672   30.9469    8.2668 O.3     1  LIG1        0.0000
   1223 SI         17.8672   32.3223    8.7531 Si      1  LIG1        0.0000
   1224 O          17.8672   32.3223   10.2120 O.3     1  LIG1        0.0000
   1225 O          20.2495   25.4452    6.3217 O.3     1  LIG1        0.0000
   1226 SI         20.2495   25.4452    0.0000 Si      1  LIG1        0.0000
   1227 O          20.2495   26.8206    0.4863 O.3     1  LIG1        0.0000
   1228 SI         20.2495   28.1961    0.9726 Si      1  LIG1        0.0000
   1229 O          21.4406   24.7575    0.4863 O.3     1  LIG1        0.0000
   1230 O          19.0583   24.7575    0.4863 O.3     1  LIG1        0.0000
   1231 O          20.2495   28.1961    2.4314 O.3     1  LIG1        0.0000
   1232 SI         20.2495   28.1961    3.8903 Si      1  LIG1        0.0000
   1233 O          20.2495   26.8206    4.3765 O.3     1  LIG1        0.0000
   1234 SI         20.2495   25.4452    4.8628 Si      1  LIG1        0.0000
   1235 O          21.4406   24.7575    4.3765 O.3     1  LIG1        0.0000
   1236 O          19.0583   24.7575    4.3765 O.3     1  LIG1        0.0000
   1237 SI         20.2495   25.4452    7.7805 Si      1  LIG1        0.0000
   1238 O          21.4406   24.7575    8.2668 O.3     1  LIG1        0.0000
   1239 O          19.0583   24.7575    8.2668 O.3     1  LIG1        0.0000
   1240 O          20.2495   26.8206    8.2668 O.3     1  LIG1        0.0000
   1241 SI         20.2495   28.1961    8.7531 Si      1  LIG1        0.0000
   1242 O          20.2495   28.1961   10.2120 O.3     1  LIG1        0.0000
   1243 O          25.0141   25.4452    6.3217 O.3     1  LIG1        0.0000
   1244 SI         25.0141   25.4452    0.0000 Si      1  LIG1        0.0000
   1245 O          25.0141   26.8206    0.4863 O.3     1  LIG1        0.0000
   1246 SI         25.0141   28.1961    0.9726 Si      1  LIG1        0.0000
   1247 O          26.2052   24.7575    0.4863 O.3     1  LIG1        0.0000
   1248 O          23.8229   24.7575    0.4863 O.3     1  LIG1        0.0000
   1249 O          25.0141   28.1961    2.4314 O.3     1  LIG1        0.0000
   1250 SI         25.0141   28.1961    3.8903 Si      1  LIG1        0.0000
   1251 O          25.0141   26.8206    4.3765 O.3     1  LIG1        0.0000
   1252 SI         25.0141   25.4452    4.8628 Si      1  LIG1        0.0000
   1253 O          26.2052   24.7575    4.3765 O.3     1  LIG1        0.0000
   1254 O          23.8229   24.7575    4.3765 O.3     1  LIG1        0.0000
   1255 SI         25.0141   25.4452    7.7805 Si      1  LIG1        0.0000
   1256 O          26.2052   24.7575    8.2668 O.3     1  LIG1        0.0000
   1257 O          23.8229   24.7575    8.2668 O.3     1  LIG1        0.0000
   1258 O          25.0141   26.8206    8.2668 O.3     1  LIG1        0.0000
   1259 SI         25.0141   28.1961    8.7531 Si      1  LIG1        0.0000
   1260 O          25.0141   28.1961   10.2120 O.3     1  LIG1        0.0000
   1261 O          22.6318   29.5715    6.3217 O.3     1  LIG1        0.0000
   1262 SI         22.6318   29.5715    0.0000 Si      1  LIG1        0.0000
   1263 O          22.6318   30.9469    0.4863 O.3     1  LIG1        0.0000
   1264 SI         22.6318   32.3223    0.9726 Si      1  LIG1        0.0000
   1265 O          23.8229   28.8838    0.4863 O.3     1  LIG1        0.0000
   1266 O          21.4406   28.8838    0.4863 O.3     1  LIG1        0.0000
   1267 O          22.6318   32.3223    2.4314 O.3     1  LIG1        0.0000
   1268 SI         22.6318   32.3223    3.8903 Si      1  LIG1        0.0000
   1269 O          22.6318   30.9469    4.3765 O.3     1  LIG1        0.0000
   1270 SI         22.6318   29.5715    4.8628 Si      1  LIG1        0.0000
   1271 O          23.8229   28.8838    4.3765 O.3     1  LIG1        0.0000
   1272 O          21.4406   28.8838    4.3765 O.3     1  LIG1        0.0000
   1273 SI         22.6318   29.5715    7.7805 Si      1  LIG1        0.0000
   1274 O          23.8229   28.8838    8.2668 O.3     1  LIG1        0.0000
   1275 O          21.4406   28.8838    8.2668 O.3     1  LIG1        0.0000
   1276 O          22.6318   30.9469    8.2668 O.3     1  LIG1        0.0000
   1277 SI         22.6318   32.3223    8.7531 Si      1  LIG1        0.0000
   1278 O          22.6318   32.3223   10.2120 O.3     1  LIG1        0.0000
   1279 O          27.3964   29.5715    6.3217 O.3     1  LIG1        0.0000
   1280 SI         27.3964   29.5715    0.0000 Si      1  LIG1        0.0000
   1281 O          27.3964   30.9469    0.4863 O.3     1  LIG1        0.0000
   1282 SI         27.3964   32.3223    0.9726 Si      1  LIG1        0.0000
   1283 O          28.5875   28.8838    0.4863 O.3     1  LIG1        0.0000
   1284 O          26.2052   28.8838    0.4863 O.3     1  LIG1        0.0000
   1285 O          27.3964   32.3223    2.4314 O.3     1  LIG1        0.0000
   1286 SI         27.3964   32.3223    3.8903 Si      1  LIG1        0.0000
   1287 O          27.3964   30.9469    4.3765 O.3     1  LIG1        0.0000
   1288 SI         27.3964   29.5715    4.8628 Si      1  LIG1        0.0000
   1289 O          28.5875   28.8838    4.3765 O.3     1  LIG1        0.0000
   1290 O          26.2052   28.8838    4.3765 O.3     1  LIG1        0.0000
   1291 SI         27.3964   29.5715    7.7805 Si      1  LIG1        0.0000
   1292 O          28.5875   28.8838    8.2668 O.3     1  LIG1        0.0000
   1293 O          26.2052   28.8838    8.2668 O.3     1  LIG1        0.0000
   1294 O          27.3964   30.9469    8.2668 O.3     1  LIG1        0.0000
   1295 SI         27.3964   32.3223    8.7531 Si      1  LIG1        0.0000
   1296 O          27.3964   32.3223   10.2120 O.3     1  LIG1        0.0000
   1297 O          29.7787   25.4452    6.3217 O.3     1  LIG1        0.0000
   1298 SI         29.7787   25.4452    0.0000 Si      1  LIG1        0.0000
   1299 O          29.7787   26.8206    0.4863 O.3     1  LIG1        0.0000
   1300 SI         29.7787   28.1961    0.9726 Si      1  LIG1        0.0000
   1301 O          30.9698   24.7575    0.4863 O.3     1  LIG1        0.0000
   1302 O          28.5875   24.7575    0.4863 O.3     1  LIG1        0.0000
   1303 O          29.7787   28.1961    2.4314 O.3     1  LIG1        0.0000
   1304 SI         29.7787   28.1961    3.8903 Si      1  LIG1        0.0000
   1305 O          29.7787   26.8206    4.3765 O.3     1  LIG1        0.0000
   1306 SI         29.7787   25.4452    4.8628 Si      1  LIG1        0.0000
   1307 O          30.9698   24.7575    4.3765 O.3     1  LIG1        0.0000
   1308 O          28.5875   24.7575    4.3765 O.3     1  LIG1        0.0000
   1309 SI         29.7787   25.4452    7.7805 Si      1  LIG1        0.0000
   1310 O          30.9698   24.7575    8.2668 O.3     1  LIG1        0.0000
   1311 O          28.5875   24.7575    8.2668 O.3     1  LIG1        0.0000
   1312 O          29.7787   26.8206    8.2668 O.3     1  LIG1        0.0000
   1313 SI         29.7787   28.1961    8.7531 Si      1  LIG1        0.0000
   1314 O          29.7787   28.1961   10.2120 O.3     1  LIG1        0.0000
   1315 O          34.5433   25.4452    6.3217 O.3     1  LIG1        0.0000
   1316 SI         34.5433   25.4452    0.0000 Si      1  LIG1        0.0000
   1317 O          34.5433   26.8206    0.4863 O.3     1  LIG1        0.0000
   1318 SI         34.5433   28.1961    0.9726 Si      1  LIG1        0.0000
   1319 O          35.7344   24.7575    0.4863 O.3     1  LIG1        0.0000
   1320 O          33.3521   24.7575    0.4863 O.3     1  LIG1        0.0000
   1321 O          34.5433   28.1961    2.4314 O.3     1  LIG1        0.0000
   1322 SI         34.5433   28.1961    3.8903 Si      1  LIG1        0.0000
   1323 O          34.5433   26.8206    4.3765 O.3     1  LIG1        0.0000
   1324 SI         34.5433   25.4452    4.8628 Si      1  LIG1        0.0000
   1325 O          35.7344   24.7575    4.3765 O.3     1  LIG1        0.0000
   1326 O          33.3521   24.7575    4.3765 O.3     1  LIG1        0.0000
   1327 SI         34.5433   25.4452    7.7805 Si      1  LIG1        0.0000
   1328 O          35.7344   24.7575    8.2668 O.3     1  LIG1        0.0000
   1329 O          33.3521   24.7575    8.2668 O.3     1  LIG1        0.0000
   1330 O          34.5433   26.8206    8.2668 O.3     1  LIG1        0.0000
   1331 SI         34.5433   28.1961    8.7531 Si      1  LIG1        0.0000
   1332 O          34.5433   28.1961   10.2120 O.3     1  LIG1        0.0000
   1333 O          32.1610   29.5715    6.3217 O.3     1  LIG1        0.0000
   1334 SI         32.1610   29.5715    0.0000 Si      1  LIG1        0.0000
   1335 O          32.1610   30.9469    0.4863 O.3     1  LIG1        0.0000
   1336 SI         32.1610   32.3223    0.9726 Si      1  LIG1        0.0000
   1337 O          33.3521   28.8838    0.4863 O.3     1  LIG1        0.0000
   1338 O          30.9698   28.8838    0.4863 O.3     1  LIG1        0.0000
   1339 O          32.1610   32.3223    2.4314 O.3     1  LIG1        0.0000
   1340 SI         32.1610   32.3223    3.8903 Si      1  LIG1        0.0000
   1341 O          32.1610   30.9469    4.3765 O.3     1  LIG1        0.0000
   1342 SI         32.1610   29.5715    4.8628 Si      1  LIG1        0.0000
   1343 O          33.3521   28.8838    4.3765 O.3     1  LIG1        0.0000
   1344 O          30.9698   28.8838    4.3765 O.3     1  LIG1        0.0000
   1345 SI         32.1610   29.5715    7.7805 Si      1  LIG1        0.0000
   1346 O          33.3521   28.8838    8.2668 O.3     1  LIG1        0.0000
   1347 O          30.9698   28.8838    8.2668 O.3     1  LIG1        0.0000
   1348 O          32.1610   30.9469    8.2668 O.3     1  LIG1        0.0000
   1349 SI         32.1610   32.3223    8.7531 Si      1  LIG1        0.0000
   1350 O          32.1610   32.3223   10.2120 O.3     1  LIG1        0.0000
   1351 O          36.9255   29.5715    6.3217 O.3     1  LIG1        0.0000
   1352 SI         36.9255   29.5715    0.0000 Si      1  LIG1        0.0000
   1353 O          36.9255   30.9469    0.4863 O.3     1  LIG1        0.0000
   1354 SI         36.9255   32.3223    0.9726 Si      1  LIG1        0.0000
   1355 O          38.1167   28.8838    0.4863 O.3     1  LIG1        0.0000
   1356 O          35.7344   28.8838    0.4863 O.3     1  LIG1        0.0000
   1357 O          36.9255   32.3223    2.4314 O.3     1  LIG1        0.0000
   1358 SI         36.9255   32.3223    3.8903 Si      1  LIG1        0.0000
   1359 O          36.9255   30.9469    4.3765 O.3     1  LIG1        0.0000
   1360 SI         36.9255   29.5715    4.8628 Si      1  LIG1        0.0000
   1361 O          38.1167   28.8838    4.3765 O.3     1  LIG1        0.0000
   1362 O          35.7344   28.8838    4.3765 O.3     1  LIG1        0.0000
   1363 SI         36.9255   29.5715    7.7805 Si      1  LIG1        0.0000
   1364 O          38.1167   28.8838    8.2668 O.3     1  LIG1        0.0000
   1365 O          35.7344   28.8838    8.2668 O.3     1  LIG1        0.0000
   1366 O          36.9255   30.9469    8.2668 O.3     1  LIG1        0.0000
   1367 SI         36.9255   32.3223    8.7531 Si      1  LIG1        0.0000
   1368 O          36.9255   32.3223   10.2120 O.3     1  LIG1        0.0000
   1369 O          39.3078   25.4452    6.3217 O.3     1  LIG1        0.0000
   1370 SI         39.3078   25.4452    0.0000 Si      1  LIG1        0.0000
   1371 O          39.3078   26.8206    0.4863 O.3     1  LIG1        0.0000
   1372 SI         39.3078   28.1961    0.9726 Si      1  LIG1        0.0000
   1373 O          40.4990   24.7575    0.4863 O.3     1  LIG1        0.0000
   1374 O          38.1167   24.7575    0.4863 O.3     1  LIG1        0.0000
   1375 O          39.3078   28.1961    2.4314 O.3     1  LIG1        0.0000
   1376 SI         39.3078   28.1961    3.8903 Si      1  LIG1        0.0000
   1377 O          39.3078   26.8206    4.3765 O.3     1  LIG1        0.0000
   1378 SI         39.3078   25.4452    4.8628 Si      1  LIG1        0.0000
   1379 O          40.4990   24.7575    4.3765 O.3     1  LIG1        0.0000
   1380 O          38.1167   24.7575    4.3765 O.3     1  LIG1        0.0000
   1381 SI         39.3078   25.4452    7.7805 Si      1  LIG1        0.0000
   1382 O          40.4990   24.7575    8.2668 O.3     1  LIG1        0.0000
   1383 O          38.1167   24.7575    8.2668 O.3     1  LIG1        0.0000
   1384 O          39.3078   26.8206    8.2668 O.3     1  LIG1        0.0000
   1385 SI         39.3078   28.1961    8.7531 Si      1  LIG1        0.0000
   1386 O          39.3078   28.1961   10.2120 O.3     1  LIG1        0.0000
   1387 O          44.0724   25.4452    6.3217 O.3     1  LIG1        0.0000
   1388 SI         44.0724   25.4452    0.0000 Si      1  LIG1        0.0000
   1389 O          44.0724   26.8206    0.4863 O.3     1  LIG1        0.0000
   1390 SI         44.0724   28.1961    0.9726 Si      1  LIG1        0.0000
   1391 O          45.2636   24.7575    0.4863 O.3     1  LIG1        0.0000
   1392 O          42.8813   24.7575    0.4863 O.3     1  LIG1        0.0000
   1393 O          44.0724   28.1961    2.4314 O.3     1  LIG1        0.0000
   1394 SI         44.0724   28.1961    3.8903 Si      1  LIG1        0.0000
   1395 O          44.0724   26.8206    4.3765 O.3     1  LIG1        0.0000
   1396 SI         44.0724   25.4452    4.8628 Si      1  LIG1        0.0000
   1397 O          45.2636   24.7575    4.3765 O.3     1  LIG1        0.0000
   1398 O          42.8813   24.7575    4.3765 O.3     1  LIG1        0.0000
   1399 SI         44.0724   25.4452    7.7805 Si      1  LIG1        0.0000
   1400 O          45.2636   24.7575    8.2668 O.3     1  LIG1        0.0000
   1401 O          42.8813   24.7575    8.2668 O.3     1  LIG1        0.0000
   1402 O          44.0724   26.8206    8.2668 O.3     1  LIG1        0.0000
   1403 SI         44.0724   28.1961    8.7531 Si      1  LIG1        0.0000
   1404 O          44.0724   28.1961   10.2120 O.3     1  LIG1        0.0000
   1405 O          41.6901   29.5715    6.3217 O.3     1  LIG1        0.0000
   1406 SI         41.6901   29.5715    0.0000 Si      1  LIG1        0.0000
   1407 O          41.6901   30.9469    0.4863 O.3     1  LIG1        0.0000
   1408 SI         41.6901   32.3223    0.9726 Si      1  LIG1        0.0000
   1409 O          42.8813   28.8838    0.4863 O.3     1  LIG1        0.0000
   1410 O          40.4990   28.8838    0.4863 O.3     1  LIG1        0.0000
   1411 O          41.6901   32.3223    2.4314 O.3     1  LIG1        0.0000
   1412 SI         41.6901   32.3223    3.8903 Si      1  LIG1        0.0000
   1413 O          41.6901   30.9469    4.3765 O.3     1  LIG1        0.0000
   1414 SI         41.6901   29.5715    4.8628 Si      1  LIG1        0.0000
   1415 O          42.8813   28.8838    4.3765 O.3     1  LIG1        0.0000
   1416 O          40.4990   28.8838    4.3765 O.3     1  LIG1        0.0000
   1417 SI         41.6901   29.5715    7.7805 Si      1  LIG1        0.0000
   1418 O          42.8813   28.8838    8.2668 O.3     1  LIG1        0.0000
   1419 O          40.4990   28.8838    8.2668 O.3     1  LIG1        0.0000
   1420 O          41.6901   30.9469    8.2668 O.3     1  LIG1        0.0000
   1421 SI         41.6901   32.3223    8.7531 Si      1  LIG1        0.0000
   1422 O          41.6901   32.3223   10.2120 O.3     1  LIG1        0.0000
   1423 O          46.4547   29.5715    6.3217 O.3     1  LIG1        0.0000
   1424 SI         46.4547   29.5715    0.0000 Si      1  LIG1        0.0000
   1425 O          46.4547   30.9469    0.4863 O.3     1  LIG1        0.0000
   1426 SI         46.4547   32.3223    0.9726 Si      1  LIG1        0.0000
   1427 O          47.6459   28.8838    0.4863 O.3     1  LIG1        0.0000
   1428 O          45.2636   28.8838    0.4863 O.3     1  LIG1        0.0000
   1429 O          46.4547   32.3223    2.4314 O.3     1  LIG1        0.0000
   1430 SI         46.4547   32.3223    3.8903 Si      1  LIG1        0.0000
   1431 O          46.4547   30.9469    4.3765 O.3     1  LIG1        0.0000
   1432 SI         46.4547   29.5715    4.8628 Si      1  LIG1        0.0000
   1433 O          47.6459   28.8838    4.3765 O.3     1  LIG1        0.0000
   1434 O          45.2636   28.8838    4.3765 O.3     1  LIG1        0.0000
   1435 SI         46.4547   29.5715    7.7805 Si      1  LIG1        0.0000
   1436 O          47.6459   28.8838    8.2668 O.3     1  LIG1        0.0000
   1437 O          45.2636   28.8838    8.2668 O.3     1  LIG1        0.0000
   1438 O          46.4547   30.9469    8.2668 O.3     1  LIG1        0.0000
   1439 SI         46.4547   32.3223    8.7531 Si      1  LIG1        0.0000
   1440 O          46.4547   32.3223   10.2120 O.3     1  LIG1        0.0000
   1441 O           1.1911   33.6977    6.3217 O.3     1  LIG1        0.0000
   1442 SI          1.1911   33.6977    0.0000 Si      1  LIG1        0.0000
   1443 O           1.1911   35.0732    0.4863 O.3     1  LIG1        0.0000
   1444 SI          1.1911   36.4486    0.9726 Si      1  LIG1        0.0000
   1445 O           2.3823   33.0100    0.4863 O.3     1  LIG1        0.0000
   1446 O           0.0000   33.0100    0.4863 O.3     1  LIG1        0.0000
   1447 O           1.1911   36.4486    2.4314 O.3     1  LIG1        0.0000
   1448 SI          1.1911   36.4486    3.8903 Si      1  LIG1        0.0000
   1449 O           1.1911   35.0732    4.3765 O.3     1  LIG1        0.0000
   1450 SI          1.1911   33.6977    4.8628 Si      1  LIG1        0.0000
   1451 O           2.3823   33.0100    4.3765 O.3     1  LIG1        0.0000
   1452 O           0.0000   33.0100    4.3765 O.3     1  LIG1        0.0000
   1453 SI          1.1911   33.6977    7.7805 Si      1  LIG1        0.0000
   1454 O           2.3823   33.0100    8.2668 O.3     1  LIG1        0.0000
   1455 O           0.0000   33.0100    8.2668 O.3     1  LIG1        0.0000
   1456 O           1.1911   35.0732    8.2668 O.3     1  LIG1        0.0000
   1457 SI          1.1911   36.4486    8.7531 Si      1  LIG1        0.0000
   1458 O           1.1911   36.4486   10.2120 O.3     1  LIG1        0.0000
   1459 O           5.9557   33.6977    6.3217 O.3     1  LIG1        0.0000
   1460 SI          5.9557   33.6977    0.0000 Si      1  LIG1        0.0000
   1461 O           5.9557   35.0732    0.4863 O.3     1  LIG1        0.0000
   1462 SI          5.9557   36.4486    0.9726 Si      1  LIG1        0.0000
   1463 O           7.1469   33.0100    0.4863 O.3     1  LIG1        0.0000
   1464 O           4.7646   33.0100    0.4863 O.3     1  LIG1        0.0000
   1465 O           5.9557   36.4486    2.4314 O.3     1  LIG1        0.0000
   1466 SI          5.9557   36.4486    3.8903 Si      1  LIG1        0.0000
   1467 O           5.9557   35.0732    4.3765 O.3     1  LIG1        0.0000
   1468 SI          5.9557   33.6977    4.8628 Si      1  LIG1        0.0000
   1469 O           7.1469   33.0100    4.3765 O.3     1  LIG1        0.0000
   1470 O           4.7646   33.0100    4.3765 O.3     1  LIG1        0.0000
   1471 SI          5.9557   33.6977    7.7805 Si      1  LIG1        0.0000
   1472 O           7.1469   33.0100    8.2668 O.3     1  LIG1        0.0000
   1473 O           4.7646   33.0100    8.2668 O.3     1  LIG1        0.0000
   1474 O           5.9557   35.0732    8.2668 O.3     1  LIG1        0.0000
   1475 SI          5.9557   36.4486    8.7531 Si      1  LIG1        0.0000
   1476 O           5.9557   36.4486   10.2120 O.3     1  LIG1        0.0000
   1477 O           3.5734   37.8240    6.3217 O.3     1  LIG1        0.0000
   1478 SI          3.5734   37.8240    0.0000 Si      1  LIG1        0.0000
   1479 O           3.5734   39.1994    0.4863 O.3     1  LIG1        0.0000
   1480 SI          3.5734   40.5748    0.9726 Si      1  LIG1        0.0000
   1481 O           4.7646   37.1363    0.4863 O.3     1  LIG1        0.0000
   1482 O           2.3823   37.1363    0.4863 O.3     1  LIG1        0.0000
   1483 O           3.5734   40.5748    2.4314 O.3     1  LIG1        0.0000
   1484 SI          3.5734   40.5748    3.8903 Si      1  LIG1        0.0000
   1485 O           3.5734   39.1994    4.3765 O.3     1  LIG1        0.0000
   1486 SI          3.5734   37.8240    4.8628 Si      1  LIG1        0.0000
   1487 O           4.7646   37.1363    4.3765 O.3     1  LIG1        0.0000
   1488 O           2.3823   37.1363    4.3765 O.3     1  LIG1        0.0000
   1489 SI          3.5734   37.8240    7.7805 Si      1  LIG1        0.0000
   1490 O           4.7646   37.1363    8.2668 O.3     1  LIG1        0.0000
   1491 O           2.3823   37.1363    8.2668 O.3     1  LIG1        0.0000
   1492 O           3.5734   39.1994    8.2668 O.3     1  LIG1        0.0000
   1493 SI          3.5734   40.5748    8.7531 Si      1  LIG1        0.0000
   1494 O           3.5734   40.5748   10.2120 O.3     1  LIG1        0.0000
   1495 O           8.3380   37.8240    6.3217 O.3     1  LIG1        0.0000
   1496 SI          8.3380   37.8240    0.0000 Si      1  LIG1        0.0000
   1497 O           8.3380   39.1994    0.4863 O.3     1  LIG1        0.0000
   1498 SI          8.3380   40.5748    0.9726 Si      1  LIG1        0.0000
   1499 O           9.5292   37.1363    0.4863 O.3     1  LIG1        0.0000
   1500 O           7.1469   37.1363    0.4863 O.3     1  LIG1        0.0000
   1501 O           8.3380   40.5748    2.4314 O.3     1  LIG1        0.0000
   1502 SI          8.3380   40.5748    3.8903 Si      1  LIG1        0.0000
   1503 O           8.3380   39.1994    4.3765 O.3     1  LIG1        0.0000
   1504 SI          8.3380   37.8240    4.8628 Si      1  LIG1        0.0000
   1505 O           9.5292   37.1363    4.3765 O.3     1  LIG1        0.0000
   1506 O           7.1469   37.1363    4.3765 O.3     1  LIG1        0.0000
   1507 SI          8.3380   37.8240    7.7805 Si      1  LIG1        0.0000
   1508 O           9.5292   37.1363    8.2668 O.3     1  LIG1        0.0000
   1509 O           7.1469   37.1363    8.2668 O.3     1  LIG1        0.0000
   1510 O           8.3380   39.1994    8.2668 O.3     1  LIG1        0.0000
   1511 SI          8.3380   40.5748    8.7531 Si      1  LIG1        0.0000
   1512 O           8.3380   40.5748   10.2120 O.3     1  LIG1        0.0000
   1513 O          10.7203   33.6977    6.3217 O.3     1  LIG1        0.0000
   1514 SI         10.7203   33.6977    0.0000 Si      1  LIG1        0.0000
   1515 O          10.7203   35.0732    0.4863 O.3     1  LIG1        0.0000
   1516 SI         10.7203   36.4486    0.9726 Si      1  LIG1        0.0000
   1517 O          11.9115   33.0100    0.4863 O.3     1  LIG1        0.0000
   1518 O           9.5292   33.0100    0.4863 O.3     1  LIG1        0.0000
   1519 O          10.7203   36.4486    2.4314 O.3     1  LIG1        0.0000
   1520 SI         10.7203   36.4486    3.8903 Si      1  LIG1        0.0000
   1521 O          10.7203   35.0732    4.3765 O.3     1  LIG1        0.0000
   1522 SI         10.7203   33.6977    4.8628 Si      1  LIG1        0.0000
   1523 O          11.9115   33.0100    4.3765 O.3     1  LIG1        0.0000
   1524 O           9.5292   33.0100    4.3765 O.3     1  LIG1        0.0000
   1525 SI         10.7203   33.6977    7.7805 Si      1  LIG1        0.0000
   1526 O          11.9115   33.0100    8.2668 O.3     1  LIG1        0.0000
   1527 O           9.5292   33.0100    8.2668 O.3     1  LIG1        0.0000
   1528 O          10.7203   35.0732    8.2668 O.3     1  LIG1        0.0000
   1529 SI         10.7203   36.4486    8.7531 Si      1  LIG1        0.0000
   1530 O          10.7203   36.4486   10.2120 O.3     1  LIG1        0.0000
   1531 O          15.4849   33.6977    6.3217 O.3     1  LIG1        0.0000
   1532 SI         15.4849   33.6977    0.0000 Si      1  LIG1        0.0000
   1533 O          15.4849   35.0732    0.4863 O.3     1  LIG1        0.0000
   1534 SI         15.4849   36.4486    0.9726 Si      1  LIG1        0.0000
   1535 O          16.6761   33.0100    0.4863 O.3     1  LIG1        0.0000
   1536 O          14.2938   33.0100    0.4863 O.3     1  LIG1        0.0000
   1537 O          15.4849   36.4486    2.4314 O.3     1  LIG1        0.0000
   1538 SI         15.4849   36.4486    3.8903 Si      1  LIG1        0.0000
   1539 O          15.4849   35.0732    4.3765 O.3     1  LIG1        0.0000
   1540 SI         15.4849   33.6977    4.8628 Si      1  LIG1        0.0000
   1541 O          16.6761   33.0100    4.3765 O.3     1  LIG1        0.0000
   1542 O          14.2938   33.0100    4.3765 O.3     1  LIG1        0.0000
   1543 SI         15.4849   33.6977    7.7805 Si      1  LIG1        0.0000
   1544 O          16.6761   33.0100    8.2668 O.3     1  LIG1        0.0000
   1545 O          14.2938   33.0100    8.2668 O.3     1  LIG1        0.0000
   1546 O          15.4849   35.0732    8.2668 O.3     1  LIG1        0.0000
   1547 SI         15.4849   36.4486    8.7531 Si      1  LIG1        0.0000
   1548 O          15.4849   36.4486   10.2120 O.3     1  LIG1        0.0000
   1549 O          13.1026   37.8240    6.3217 O.3     1  LIG1        0.0000
   1550 SI         13.1026   37.8240    0.0000 Si      1  LIG1        0.0000
   1551 O          13.1026   39.1994    0.4863 O.3     1  LIG1        0.0000
   1552 SI         13.1026   40.5748    0.9726 Si      1  LIG1        0.0000
   1553 O          14.2938   37.1363    0.4863 O.3     1  LIG1        0.0000
   1554 O          11.9115   37.1363    0.4863 O.3     1  LIG1        0.0000
   1555 O          13.1026   40.5748    2.4314 O.3     1  LIG1        0.0000
   1556 SI         13.1026   40.5748    3.8903 Si      1  LIG1        0.0000
   1557 O          13.1026   39.1994    4.3765 O.3     1  LIG1        0.0000
   1558 SI         13.1026   37.8240    4.8628 Si      1  LIG1        0.0000
   1559 O          14.2938   37.1363    4.3765 O.3     1  LIG1        0.0000
   1560 O          11.9115   37.1363    4.3765 O.3     1  LIG1        0.0000
   1561 SI         13.1026   37.8240    7.7805 Si      1  LIG1        0.0000
   1562 O          14.2938   37.1363    8.2668 O.3     1  LIG1        0.0000
   1563 O          11.9115   37.1363    8.2668 O.3     1  LIG1        0.0000
   1564 O          13.1026   39.1994    8.2668 O.3     1  LIG1        0.0000
   1565 SI         13.1026   40.5748    8.7531 Si      1  LIG1        0.0000
   1566 O          13.1026   40.5748   10.2120 O.3     1  LIG1        0.0000
   1567 O          17.8672   37.8240    6.3217 O.3     1  LIG1        0.0000
   1568 SI         17.8672   37.8240    0.0000 Si      1  LIG1        0.0000
   1569 O          17.8672   39.1994    0.4863 O.3     1  LIG1        0.0000
   1570 SI         17.8672   40.5748    0.9726 Si      1  LIG1        0.0000
   1571 O          19.0583   37.1363    0.4863 O.3     1  LIG1        0.0000
   1572 O          16.6761   37.1363    0.4863 O.3     1  LIG1        0.0000
   1573 O          17.8672   40.5748    2.4314 O.3     1  LIG1        0.0000
   1574 SI         17.8672   40.5748    3.8903 Si      1  LIG1        0.0000
   1575 O          17.8672   39.1994    4.3765 O.3     1  LIG1        0.0000
   1576 SI         17.8672   37.8240    4.8628 Si      1  LIG1        0.0000
   1577 O          19.0583   37.1363    4.3765 O.3     1  LIG1        0.0000
   1578 O          16.6761   37.1363    4.3765 O.3     1  LIG1        0.0000
   1579 SI         17.8672   37.8240    7.7805 Si      1  LIG1        0.0000
   1580 O          19.0583   37.1363    8.2668 O.3     1  LIG1        0.0000
   1581 O          16.6761   37.1363    8.2668 O.3     1  LIG1        0.0000
   1582 O          17.8672   39.1994    8.2668 O.3     1  LIG1        0.0000
   1583 SI         17.8672   40.5748    8.7531 Si      1  LIG1        0.0000
   1584 O          17.8672   40.5748   10.2120 O.3     1  LIG1        0.0000
   1585 O          20.2495   33.6977    6.3217 O.3     1  LIG1        0.0000
   1586 SI         20.2495   33.6977    0.0000 Si      1  LIG1        0.0000
   1587 O          20.2495   35.0732    0.4863 O.3     1  LIG1        0.0000
   1588 SI         20.2495   36.4486    0.9726 Si      1  LIG1        0.0000
   1589 O          21.4406   33.0100    0.4863 O.3     1  LIG1        0.0000
   1590 O          19.0583   33.0100    0.4863 O.3     1  LIG1        0.0000
   1591 O          20.2495   36.4486    2.4314 O.3     1  LIG1        0.0000
   1592 SI         20.2495   36.4486    3.8903 Si      1  LIG1        0.0000
   1593 O          20.2495   35.0732    4.3765 O.3     1  LIG1        0.0000
   1594 SI         20.2495   33.6977    4.8628 Si      1  LIG1        0.0000
   1595 O          21.4406   33.0100    4.3765 O.3     1  LIG1        0.0000
   1596 O          19.0583   33.0100    4.3765 O.3     1  LIG1        0.0000
   1597 SI         20.2495   33.6977    7.7805 Si      1  LIG1        0.0000
   1598 O          21.4406   33.0100    8.2668 O.3     1  LIG1        0.0000
   1599 O          19.0583   33.0100    8.2668 O.3     1  LIG1        0.0000
   1600 O          20.2495   35.0732    8.2668 O.3     1  LIG1        0.0000
   1601 SI         20.2495   36.4486    8.7531 Si      1  LIG1        0.0000
   1602 O          20.2495   36.4486   10.2120 O.3     1  LIG1        0.0000
   1603 O          25.0141   33.6977    6.3217 O.3     1  LIG1        0.0000
   1604 SI         25.0141   33.6977    0.0000 Si      1  LIG1        0.0000
   1605 O          25.0141   35.0732    0.4863 O.3     1  LIG1        0.0000
   1606 SI         25.0141   36.4486    0.9726 Si      1  LIG1        0.0000
   1607 O          26.2052   33.0100    0.4863 O.3     1  LIG1        0.0000
   1608 O          23.8229   33.0100    0.4863 O.3     1  LIG1        0.0000
   1609 O          25.0141   36.4486    2.4314 O.3     1  LIG1        0.0000
   1610 SI         25.0141   36.4486    3.8903 Si      1  LIG1        0.0000
   1611 O          25.0141   35.0732    4.3765 O.3     1  LIG1        0.0000
   1612 SI         25.0141   33.6977    4.8628 Si      1  LIG1        0.0000
   1613 O          26.2052   33.0100    4.3765 O.3     1  LIG1        0.0000
   1614 O          23.8229   33.0100    4.3765 O.3     1  LIG1        0.0000
   1615 SI         25.0141   33.6977    7.7805 Si      1  LIG1        0.0000
   1616 O          26.2052   33.0100    8.2668 O.3     1  LIG1        0.0000
   1617 O          23.8229   33.0100    8.2668 O.3     1  LIG1        0.0000
   1618 O          25.0141   35.0732    8.2668 O.3     1  LIG1        0.0000
   1619 SI         25.0141   36.4486    8.7531 Si      1  LIG1        0.0000
   1620 O          25.0141   36.4486   10.2120 O.3     1  LIG1        0.0000
   1621 O          22.6318   37.8240    6.3217 O.3     1  LIG1        0.0000
   1622 SI         22.6318   37.8240    0.0000 Si      1  LIG1        0.0000
   1623 O          22.6318   39.1994    0.4863 O.3     1  LIG1        0.0000
   1624 SI         22.6318   40.5748    0.9726 Si      1  LIG1        0.0000
   1625 O          23.8229   37.1363    0.4863 O.3     1  LIG1        0.0000
   1626 O          21.4406   37.1363    0.4863 O.3     1  LIG1        0.0000
   1627 O          22.6318   40.5748    2.4314 O.3     1  LIG1        0.0000
   1628 SI         22.6318   40.5748    3.8903 Si      1  LIG1        0.0000
   1629 O          22.6318   39.1994    4.3765 O.3     1  LIG1        0.0000
   1630 SI         22.6318   37.8240    4.8628 Si      1  LIG1        0.0000
   1631 O          23.8229   37.1363    4.3765 O.3     1  LIG1        0.0000
   1632 O          21.4406   37.1363    4.3765 O.3     1  LIG1        0.0000
   1633 SI         22.6318   37.8240    7.7805 Si      1  LIG1        0.0000
   1634 O          23.8229   37.1363    8.2668 O.3     1  LIG1        0.0000
   1635 O          21.4406   37.1363    8.2668 O.3     1  LIG1        0.0000
   1636 O          22.6318   39.1994    8.2668 O.3     1  LIG1        0.0000
   1637 SI         22.6318   40.5748    8.7531 Si      1  LIG1        0.0000
   1638 O          22.6318   40.5748   10.2120 O.3     1  LIG1        0.0000
   1639 O          27.3964   37.8240    6.3217 O.3     1  LIG1        0.0000
   1640 SI         27.3964   37.8240    0.0000 Si      1  LIG1        0.0000
   1641 O          27.3964   39.1994    0.4863 O.3     1  LIG1        0.0000
   1642 SI         27.3964   40.5748    0.9726 Si      1  LIG1        0.0000
   1643 O          28.5875   37.1363    0.4863 O.3     1  LIG1        0.0000
   1644 O          26.2052   37.1363    0.4863 O.3     1  LIG1        0.0000
   1645 O          27.3964   40.5748    2.4314 O.3     1  LIG1        0.0000
   1646 SI         27.3964   40.5748    3.8903 Si      1  LIG1        0.0000
   1647 O          27.3964   39.1994    4.3765 O.3     1  LIG1        0.0000
   1648 SI         27.3964   37.8240    4.8628 Si      1  LIG1        0.0000
   1649 O          28.5875   37.1363    4.3765 O.3     1  LIG1        0.0000
   1650 O          26.2052   37.1363    4.3765 O.3     1  LIG1        0.0000
   1651 SI         27.3964   37.8240    7.7805 Si      1  LIG1        0.0000
   1652 O          28.5875   37.1363    8.2668 O.3     1  LIG1        0.0000
   1653 O          26.2052   37.1363    8.2668 O.3     1  LIG1        0.0000
   1654 O          27.3964   39.1994    8.2668 O.3     1  LIG1        0.0000
   1655 SI         27.3964   40.5748    8.7531 Si      1  LIG1        0.0000
   1656 O          27.3964   40.5748   10.2120 O.3     1  LIG1        0.0000
   1657 O          29.7787   33.6977    6.3217 O.3     1  LIG1        0.0000
   1658 SI         29.7787   33.6977    0.0000 Si      1  LIG1        0.0000
   1659 O          29.7787   35.0732    0.4863 O.3     1  LIG1        0.0000
   1660 SI         29.7787   36.4486    0.9726 Si      1  LIG1        0.0000
   1661 O          30.9698   33.0100    0.4863 O.3     1  LIG1        0.0000
   1662 O          28.5875   33.0100    0.4863 O.3     1  LIG1        0.0000
   1663 O          29.7787   36.4486    2.4314 O.3     1  LIG1        0.0000
   1664 SI         29.7787   36.4486    3.8903 Si      1  LIG1        0.0000
   1665 O          29.7787   35.0732    4.3765 O.3     1  LIG1        0.0000
   1666 SI         29.7787   33.6977    4.8628 Si      1  LIG1        0.0000
   1667 O          30.9698   33.0100    4.3765 O.3     1  LIG1        0.0000
   1668 O          28.5875   33.0100    4.3765 O.3     1  LIG1        0.0000
   1669 SI         29.7787   33.6977    7.7805 Si      1  LIG1        0.0000
   1670 O          30.9698   33.0100    8.2668 O.3     1  LIG1        0.0000
   1671 O          28.5875   33.0100    8.2668 O.3     1  LIG1        0.0000
   1672 O          29.7787   35.0732    8.2668 O.3     1  LIG1        0.0000
   1673 SI         29.7787   36.4486    8.7531 Si      1  LIG1        0.0000
   1674 O          29.7787   36.4486   10.2120 O.3     1  LIG1        0.0000
   1675 O          34.5433   33.6977    6.3217 O.3     1  LIG1        0.0000
   1676 SI         34.5433   33.6977    0.0000 Si      1  LIG1        0.0000
   1677 O          34.5433   35.0732    0.4863 O.3     1  LIG1        0.0000
   1678 SI         34.5433   36.4486    0.9726 Si      1  LIG1        0.0000
   1679 O          35.7344   33.0100    0.4863 O.3     1  LIG1        0.0000
   1680 O          33.3521   33.0100    0.4863 O.3     1  LIG1        0.0000
   1681 O          34.5433   36.4486    2.4314 O.3     1  LIG1        0.0000
   1682 SI         34.5433   36.4486    3.8903 Si      1  LIG1        0.0000
   1683 O          34.5433   35.0732    4.3765 O.3     1  LIG1        0.0000
   1684 SI         34.5433   33.6977    4.8628 Si      1  LIG1        0.0000
   1685 O          35.7344   33.0100    4.3765 O.3     1  LIG1        0.0000
   1686 O          33.3521   33.0100    4.3765 O.3     1  LIG1        0.0000
   1687 SI         34.5433   33.6977    7.7805 Si      1  LIG1        0.0000
   1688 O          35.7344   33.0100    8.2668 O.3     1  LIG1        0.0000
   1689 O          33.3521   33.0100    8.2668 O.3     1  LIG1        0.0000
   1690 O          34.5433   35.0732    8.2668 O.3     1  LIG1        0.0000
   1691 SI         34.5433   36.4486    8.7531 Si      1  LIG1        0.0000
   1692 O          34.5433   36.4486   10.2120 O.3     1  LIG1        0.0000
   1693 O          32.1610   37.8240    6.3217 O.3     1  LIG1        0.0000
   1694 SI         32.1610   37.8240    0.0000 Si      1  LIG1        0.0000
   1695 O          32.1610   39.1994    0.4863 O.3     1  LIG1        0.0000
   1696 SI         32.1610   40.5748    0.9726 Si      1  LIG1        0.0000
   1697 O          33.3521   37.1363    0.4863 O.3     1  LIG1        0.0000
   1698 O          30.9698   37.1363    0.4863 O.3     1  LIG1        0.0000
   1699 O          32.1610   40.5748    2.4314 O.3     1  LIG1        0.0000
   1700 SI         32.1610   40.5748    3.8903 Si      1  LIG1        0.0000
   1701 O          32.1610   39.1994    4.3765 O.3     1  LIG1        0.0000
   1702 SI         32.1610   37.8240    4.8628 Si      1  LIG1        0.0000
   1703 O          33.3521   37.1363    4.3765 O.3     1  LIG1        0.0000
   1704 O          30.9698   37.1363    4.3765 O.3     1  LIG1        0.0000
   1705 SI         32.1610   37.8240    7.7805 Si      1  LIG1        0.0000
   1706 O          33.3521   37.1363    8.2668 O.3     1  LIG1        0.0000
   1707 O          30.9698   37.1363    8.2668 O.3     1  LIG1        0.0000
   1708 O          32.1610   39.1994    8.2668 O.3     1  LIG1        0.0000
   1709 SI         32.1610   40.5748    8.7531 Si      1  LIG1        0.0000
   1710 O          32.1610   40.5748   10.2120 O.3     1  LIG1        0.0000
   1711 O          36.9255   37.8240    6.3217 O.3     1  LIG1        0.0000
   1712 SI         36.9255   37.8240    0.0000 Si      1  LIG1        0.0000
   1713 O          36.9255   39.1994    0.4863 O.3     1  LIG1        0.0000
   1714 SI         36.9255   40.5748    0.9726 Si      1  LIG1        0.0000
   1715 O          38.1167   37.1363    0.4863 O.3     1  LIG1        0.0000
   1716 O          35.7344   37.1363    0.4863 O.3     1  LIG1        0.0000
   1717 O          36.9255   40.5748    2.4314 O.3     1  LIG1        0.0000
   1718 SI         36.9255   40.5748    3.8903 Si      1  LIG1        0.0000
   1719 O          36.9255   39.1994    4.3765 O.3     1  LIG1        0.0000
   1720 SI         36.9255   37.8240    4.8628 Si      1  LIG1        0.0000
   1721 O          38.1167   37.1363    4.3765 O.3     1  LIG1        0.0000
   1722 O          35.7344   37.1363    4.3765 O.3     1  LIG1        0.0000
   1723 SI         36.9255   37.8240    7.7805 Si      1  LIG1        0.0000
   1724 O          38.1167   37.1363    8.2668 O.3     1  LIG1        0.0000
   1725 O          35.7344   37.1363    8.2668 O.3     1  LIG1        0.0000
   1726 O          36.9255   39.1994    8.2668 O.3     1  LIG1        0.0000
   1727 SI         36.9255   40.5748    8.7531 Si      1  LIG1        0.0000
   1728 O          36.9255   40.5748   10.2120 O.3     1  LIG1        0.0000
   1729 O          39.3078   33.6977    6.3217 O.3     1  LIG1        0.0000
   1730 SI         39.3078   33.6977    0.0000 Si      1  LIG1        0.0000
   1731 O          39.3078   35.0732    0.4863 O.3     1  LIG1        0.0000
   1732 SI         39.3078   36.4486    0.9726 Si      1  LIG1        0.0000
   1733 O          40.4990   33.0100    0.4863 O.3     1  LIG1        0.0000
   1734 O          38.1167   33.0100    0.4863 O.3     1  LIG1        0.0000
   1735 O          39.3078   36.4486    2.4314 O.3     1  LIG1        0.0000
   1736 SI         39.3078   36.4486    3.8903 Si      1  LIG1        0.0000
   1737 O          39.3078   35.0732    4.3765 O.3     1  LIG1        0.0000
   1738 SI         39.3078   33.6977    4.8628 Si      1  LIG1        0.0000
   1739 O          40.4990   33.0100    4.3765 O.3     1  LIG1        0.0000
   1740 O          38.1167   33.0100    4.3765 O.3     1  LIG1        0.0000
   1741 SI         39.3078   33.6977    7.7805 Si      1  LIG1        0.0000
   1742 O          40.4990   33.0100    8.2668 O.3     1  LIG1        0.0000
   1743 O          38.1167   33.0100    8.2668 O.3     1  LIG1        0.0000
   1744 O          39.3078   35.0732    8.2668 O.3     1  LIG1        0.0000
   1745 SI         39.3078   36.4486    8.7531 Si      1  LIG1        0.0000
   1746 O          39.3078   36.4486   10.2120 O.3     1  LIG1        0.0000
   1747 O          44.0724   33.6977    6.3217 O.3     1  LIG1        0.0000
   1748 SI         44.0724   33.6977    0.0000 Si      1  LIG1        0.0000
   1749 O          44.0724   35.0732    0.4863 O.3     1  LIG1        0.0000
   1750 SI         44.0724   36.4486    0.9726 Si      1  LIG1        0.0000
   1751 O          45.2636   33.0100    0.4863 O.3     1  LIG1        0.0000
   1752 O          42.8813   33.0100    0.4863 O.3     1  LIG1        0.0000
   1753 O          44.0724   36.4486    2.4314 O.3     1  LIG1        0.0000
   1754 SI         44.0724   36.4486    3.8903 Si      1  LIG1        0.0000
   1755 O          44.0724   35.0732    4.3765 O.3     1  LIG1        0.0000
   1756 SI         44.0724   33.6977    4.8628 Si      1  LIG1        0.0000
   1757 O          45.2636   33.0100    4.3765 O.3     1  LIG1        0.0000
   1758 O          42.8813   33.0100    4.3765 O.3     1  LIG1        0.0000
   1759 SI         44.0724   33.6977    7.7805 Si      1  LIG1        0.0000
   1760 O          45.2636   33.0100    8.2668 O.3     1  LIG1        0.0000
   1761 O          42.8813   33.0100    8.2668 O.3     1  LIG1        0.0000
   1762 O          44.0724   35.0732    8.2668 O.3     1  LIG1        0.0000
   1763 SI         44.0724   36.4486    8.7531 Si      1  LIG1        0.0000
   1764 O          44.0724   36.4486   10.2120 O.3     1  LIG1        0.0000
   1765 O          41.6901   37.8240    6.3217 O.3     1  LIG1        0.0000
   1766 SI         41.6901   37.8240    0.0000 Si      1  LIG1        0.0000
   1767 O          41.6901   39.1994    0.4863 O.3     1  LIG1        0.0000
   1768 SI         41.6901   40.5748    0.9726 Si      1  LIG1        0.0000
   1769 O          42.8813   37.1363    0.4863 O.3     1  LIG1        0.0000
   1770 O          40.4990   37.1363    0.4863 O.3     1  LIG1        0.0000
   1771 O          41.6901   40.5748    2.4314 O.3     1  LIG1        0.0000
   1772 SI         41.6901   40.5748    3.8903 Si      1  LIG1        0.0000
   1773 O          41.6901   39.1994    4.3765 O.3     1  LIG1        0.0000
   1774 SI         41.6901   37.8240    4.8628 Si      1  LIG1        0.0000
   1775 O          42.8813   37.1363    4.3765 O.3     1  LIG1        0.0000
   1776 O          40.4990   37.1363    4.3765 O.3     1  LIG1        0.0000
   1777 SI         41.6901   37.8240    7.7805 Si      1  LIG1        0.0000
   1778 O          42.8813   37.1363    8.2668 O.3     1  LIG1        0.0000
   1779 O          40.4990   37.1363    8.2668 O.3     1  LIG1        0.0000
   1780 O          41.6901   39.1994    8.2668 O.3     1  LIG1        0.0000
   1781 SI         41.6901   40.5748    8.7531 Si      1  LIG1        0.0000
   1782 O          41.6901   40.5748   10.2120 O.3     1  LIG1        0.0000
   1783 O          46.4547   37.8240    6.3217 O.3     1  LIG1        0.0000
   1784 SI         46.4547   37.8240    0.0000 Si      1  LIG1        0.0000
   1785 O          46.4547   39.1994    0.4863 O.3     1  LIG1        0.0000
   1786 SI         46.4547   40.5748    0.9726 Si      1  LIG1        0.0000
   1787 O          47.6459   37.1363    0.4863 O.3     1  LIG1        0.0000
   1788 O          45.2636   37.1363    0.4863 O.3     1  LIG1        0.0000
   1789 O          46.4547   40.5748    2.4314 O.3     1  LIG1        0.0000
   1790 SI         46.4547   40.5748    3.8903 Si      1  LIG1        0.0000
   1791 O          46.4547   39.1994    4.3765 O.3     1  LIG1        0.0000
   1792 SI         46.4547   37.8240    4.8628 Si      1  LIG1        0.0000
   1793 O          47.6459   37.1363    4.3765 O.3     1  LIG1        0.0000
   1794 O          45.2636   37.1363    4.3765 O.3     1  LIG1        0.0000
   1795 SI         46.4547   37.8240    7.7805 Si      1  LIG1        0.0000
   1796 O          47.6459   37.1363    8.2668 O.3     1  LIG1        0.0000
   1797 O          45.2636   37.1363    8.2668 O.3     1  LIG1        0.0000
   1798 O          46.4547   39.1994    8.2668 O.3     1  LIG1        0.0000
   1799 SI         46.4547   40.5748    8.7531 Si      1  LIG1        0.0000
   1800 O          46.4547   40.5748   10.2120 O.3     1  LIG1        0.0000
@<TRIPOS>BOND
     1  1172  1176    1
     2  1172  1175    1
     3  1172  1173    1
     4   560   564    1
     5   560   563    1
     6   560   561    1
     7  1478  1479    1
     8  1478  1481    1
     9  1478  1482    1
    10  1280  1281    1
    11  1280  1284    1
    12  1280  1283    1
    13   542   546    1
    14   542   545    1
    15   542   543    1
    16   146   150    1
    17   146   149    1
    18   146   147    1
    19   902   903    1
    20   902   905    1
    21   902   906    1
    22   524   528    1
    23   524   527    1
    24   524   525    1
    25  1496  1497    1
    26  1496  1499    1
    27  1496  1500    1
    28  1712  1713    1
    29  1712  1715    1
    30  1712  1716    1
    31  1064  1065    1
    32  1064  1067    1
    33  1064  1068    1
    34   164   168    1
    35   164   167    1
    36   164   165    1
    37   506   510    1
    38   506   509    1
    39   506   507    1
    40  1514  1515    1
    41  1514  1517    1
    42  1514  1518    1
    43   920   921    1
    44   920   923    1
    45   920   924    1
    46   488   492    1
    47   488   491    1
    48   488   489    1
    49  1694  1698    1
    50  1694  1695    1
    51  1694  1697    1
    52   182   186    1
    53   182   185    1
    54   182   183    1
    55   848   851    1
    56   848   849    1
    57   848   852    1
    58   650   651    1
    59   650   653    1
    60   650   654    1
    61  1100  1101    1
    62  1100  1103    1
    63  1100  1104    1
    64  1424  1427    1
    65  1424  1425    1
    66  1424  1428    1
    67  1748  1749    1
    68  1748  1751    1
    69  1748  1752    1
    70    92    96    1
    71    92    95    1
    72    92    93    1
    73   632   633    1
    74   632   635    1
    75   632   636    1
    76  1298  1301    1
    77  1298  1299    1
    78  1298  1302    1
    79   866   867    1
    80   866   869    1
    81   866   870    1
    82   614   618    1
    83   614   617    1
    84   614   615    1
    85  1442  1443    1
    86  1442  1445    1
    87  1442  1446    1
    88   110   114    1
    89   110   113    1
    90   110   111    1
    91   596   600    1
    92   596   599    1
    93   596   597    1
    94  1460  1463    1
    95  1460  1464    1
    96  1460  1461    1
    97   884   885    1
    98   884   887    1
    99   884   888    1
   100   578   582    1
   101   578   581    1
   102   578   579    1
   103  1730  1731    1
   104  1730  1733    1
   105  1730  1734    1
   106  1082  1083    1
   107  1082  1085    1
   108  1082  1086    1
   109   128   132    1
   110   128   131    1
   111   128   129    1
   112   974   975    1
   113   974   977    1
   114   974   978    1
   115  1586  1587    1
   116  1586  1589    1
   117  1586  1590    1
   118  1658  1661    1
   119  1658  1662    1
   120  1658  1659    1
   121   362   366    1
   122   362   365    1
   123   362   363    1
   124  1028  1029    1
   125  1028  1031    1
   126  1028  1032    1
   127   254   255    1
   128   254   258    1
   129   254   257    1
   130   344   348    1
   131   344   347    1
   132   344   345    1
   133  1226  1230    1
   134  1226  1229    1
   135  1226  1227    1
   136  1208  1212    1
   137  1208  1211    1
   138  1208  1209    1
   139  1604  1608    1
   140  1604  1605    1
   141  1604  1607    1
   142   992   993    1
   143   992   995    1
   144   992   996    1
   145   326   330    1
   146   326   329    1
   147   326   327    1
   148   272   276    1
   149   272   275    1
   150   272   273    1
   151   308   312    1
   152   308   311    1
   153   308   309    1
   154  1622  1623    1
   155  1622  1625    1
   156  1622  1626    1
   157  1640  1641    1
   158  1640  1643    1
   159  1640  1644    1
   160  1010  1014    1
   161  1010  1013    1
   162  1010  1011    1
   163   290   294    1
   164   290   293    1
   165   290   291    1
   166   470   474    1
   167   470   473    1
   168   470   471    1
   169  1262  1266    1
   170  1262  1265    1
   171  1262  1263    1
   172  1532  1535    1
   173  1532  1536    1
   174  1532  1533    1
   175   938   941    1
   176   938   942    1
   177   938   939    1
   178   452   453    1
   179   452   456    1
   180   452   455    1
   181   200   204    1
   182   200   203    1
   183   200   201    1
   184   434   438    1
   185   434   437    1
   186   434   435    1
   187  1550  1551    1
   188  1550  1553    1
   189  1550  1554    1
   190  1046  1047    1
   191  1046  1049    1
   192  1046  1050    1
   193  1190  1194    1
   194  1190  1193    1
   195  1190  1191    1
   196  1676  1677    1
   197  1676  1679    1
   198  1676  1680    1
   199   218   222    1
   200   218   221    1
   201   218   219    1
   202   416   417    1
   203   416   420    1
   204   416   419    1
   205  1244  1248    1
   206  1244  1247    1
   207  1244  1245    1
   208   956   957    1
   209   956   959    1
   210   956   960    1
   211   398   402    1
   212   398   401    1
   213   398   399    1
   214  1568  1569    1
   215  1568  1571    1
   216  1568  1572    1
   217   236   237    1
   218   236   240    1
   219   236   239    1
   220   380   384    1
   221   380   383    1
   222   380   381    1
   223  1406  1409    1
   224  1406  1410    1
   225  1406  1407    1
   226   686   687    1
   227   686   689    1
   228   686   690    1
   229   830   833    1
   230   830   831    1
   231   830   834    1
   232    56    57    1
   233    56    60    1
   234    56    59    1
   235   704   705    1
   236   704   707    1
   237   704   708    1
   238  1154  1158    1
   239  1154  1157    1
   240  1154  1155    1
   241  1316  1317    1
   242  1316  1319    1
   243  1316  1320    1
   244  1118  1119    1
   245  1118  1121    1
   246  1118  1122    1
   247  1388  1392    1
   248  1388  1391    1
   249  1388  1389    1
   250   722   723    1
   251   722   725    1
   252   722   726    1
   253    38    42    1
   254    38    41    1
   255    38    39    1
   256  1784  1785    1
   257  1784  1787    1
   258  1784  1788    1
   259  1370  1371    1
   260  1370  1374    1
   261  1370  1373    1
   262   740   741    1
   263   740   743    1
   264   740   744    1
   265   812   813    1
   266   812   815    1
   267   812   816    1
   268  1334  1335    1
   269  1334  1337    1
   270  1334  1338    1
   271    20    24    1
   272    20    23    1
   273    20    21    1
   274   758   759    1
   275   758   761    1
   276   758   762    1
   277  1352  1356    1
   278  1352  1355    1
   279  1352  1353    1
   280   776   779    1
   281   776   780    1
   282   776   777    1
   283   794   795    1
   284   794   798    1
   285   794   797    1
   286     2     6    1
   287     2     5    1
   288     2     3    1
   289  1136  1140    1
   290  1136  1139    1
   291  1136  1137    1
   292    74    78    1
   293    74    77    1
   294    74    75    1
   295  1766  1767    1
   296  1766  1769    1
   297  1766  1770    1
   298   668   672    1
   299   668   671    1
   300   668   669    1
   301   417   418    1
   302   813   814    1
   303  1409  1390    1
   304  1410  1372    1
   305   957   958    1
   306   959   634    1
   307   960   616    1
   308   402   364    1
   309   401   382    1
   310   399   400    1
   311  1335  1336    1
   312  1356  1318    1
   313  1569  1570    1
   314  1571  1588    1
   315  1572  1534    1
   316   384    40    1
   317   383    58    1
   318   651   652    1
   319   381   382    1
   320   653   328    1
   321  1230   850    1
   322   759   760    1
   323   761   742    1
   324   453   454    1
   325  1535  1210    1
   326  1536  1192    1
   327   941   616    1
   328  1371  1372    1
   329   942   562    1
   330   438    58    1
   331   437   112    1
   332   435   436    1
   333  1425  1426    1
   334   815   490    1
   335  1551  1552    1
   336   741   742    1
   337  1553  1534    1
   338  1554  1516    1
   339  1248   904    1
   340  1247   922    1
   341  1245  1246    1
   342   743   418    1
   343   420   382    1
   344   419   436    1
   345   744   400    1
   346   779   796    1
   347   993   994    1
   348   330   292    1
   349   329   310    1
   350   327   328    1
   351   780   742    1
   352   795   796    1
   353  1608  1264    1
   354   995  1012    1
   355   996   958    1
   356   309   310    1
   357   851   868    1
   358  1337  1318    1
   359  1623  1624    1
   360  1625  1606    1
   361  1338  1300    1
   362  1626  1588    1
   363  1212  1174    1
   364  1211  1228    1
   365   849   850    1
   366  1587  1588    1
   367   975   976    1
   368   977   958    1
   369   978   940    1
   370   365    40    1
   371   363   364    1
   372   762   724    1
   373  1355  1372    1
   374  1353  1354    1
   375  1589  1264    1
   376  1590  1210    1
   377   654   274    1
   378  1229   904    1
   379   348   310    1
   380   345   346    1
   381   798   418    1
   382  1227  1228    1
   383   797   472    1
   384   852   814    1
   385   777   778    1
   386  1605  1606    1
   387  1607  1282    1
   388   833   814    1
   389   831   832    1
   390  1463  1138    1
   391  1301   976    1
   392  1464  1120    1
   393   672   328    1
   394   885   886    1
   395   887   562    1
   396   888   544    1
   397   564   526    1
   398   563   580    1
   399   561   562    1
   400  1392  1048    1
   401  1391  1066    1
   402  1389  1390    1
   403  1479  1480    1
   404  1481  1462    1
   405  1281  1282    1
   406   633   634    1
   407   546   508    1
   408   545   526    1
   409   543   544    1
   410   705   706    1
   411  1407  1408    1
   412   867   868    1
   413   869   544    1
   414   618   580    1
   415   617   598    1
   416   615   616    1
   417  1299  1300    1
   418  1443  1444    1
   419  1445  1120    1
   420   870   490    1
   421   687   688    1
   422   600   256    1
   423   599   274    1
   424   597   598    1
   425   689   670    1
   426   690   652    1
   427  1461  1462    1
   428  1284  1246    1
   429  1283  1300    1
   430   834   796    1
   431   582   202    1
   432   581   256    1
   433   579   580    1
   434  1302   922    1
   435   921   922    1
   436   923   940    1
   437   492   454    1
   438   491   508    1
   439   489   490    1
   440   723   724    1
   441  1515  1516    1
   442  1517  1192    1
   443  1518  1138    1
   444   725   400    1
   445  1428  1390    1
   446   924   886    1
   447   474   436    1
   448   473   454    1
   449   471   472    1
   450   816   472    1
   451  1374   994    1
   452  1533  1534    1
   453  1373  1048    1
   454   939   940    1
   455   456   112    1
   456   455   130    1
   457  1482  1444    1
   458   671   346    1
   459   903   904    1
   460   905   886    1
   461   906   868    1
   462   528   184    1
   463   527   202    1
   464   525   526    1
   465   708   670    1
   466   635   652    1
   467  1497  1498    1
   468   669   670    1
   469  1499  1516    1
   470  1500  1462    1
   471   510   130    1
   472   509   184    1
   473  1317  1318    1
   474  1319   994    1
   475   507   508    1
   476   636   598    1
   477  1266  1228    1
   478  1265  1246    1
   479  1263  1264    1
   480  1320   976    1
   481  1698  1660    1
   482   165   166    1
   483  1065  1066    1
   484  1068  1030    1
   485  1713  1714    1
   486   147   148    1
   487  1715  1732    1
   488  1716  1678    1
   489  1176   832    1
   490  1175   850    1
   491  1173  1174    1
   492   132    94    1
   493   131   148    1
   494   129   130    1
   495  1083  1084    1
   496  1731  1732    1
   497  1733  1408    1
   498   237   238    1
   499  1661  1336    1
   500  1662  1282    1
   501  1194  1156    1
   502   219   220    1
   503  1193  1174    1
   504  1677  1678    1
   505  1679  1354    1
   506  1680  1336    1
   507  1191  1192    1
   508  1047  1048    1
   509   204   166    1
   510   203   220    1
   511   201   202    1
   512  1049  1030    1
   513  1050  1012    1
   514   186   148    1
   515   185   166    1
   516   183   184    1
   517  1695  1696    1
   518  1697  1678    1
   519    57    58    1
   520  1767  1768    1
   521  1769  1750    1
   522  1770  1732    1
   523  1119  1120    1
   524    42     4    1
   525    41    22    1
   526    39    40    1
   527  1121  1102    1
   528  1122  1084    1
   529  1785  1786    1
   530    21    22    1
   531  1788  1750    1
   532  1140  1102    1
   533  1139  1156    1
   534  1137  1138    1
   535     3     4    1
   536  1085   760    1
   537   114    76    1
   538   113    94    1
   539   111   112    1
   540  1734  1354    1
   541    93    94    1
   542  1158   778    1
   543  1749  1750    1
   544  1751  1426    1
   545  1752  1408    1
   546  1157   832    1
   547  1101  1102    1
   548    75    76    1
   549  1103   778    1
   550  1104   760    1
   551  1155  1156    1
   552    60    22    1
   553    59    76    1
   554   276   238    1
   555  1659  1660    1
   556  1029  1030    1
   557   275   292    1
   558   273   274    1
   559  1641  1642    1
   560  1031   706    1
   561  1032   688    1
   562  1014   634    1
   563  1013   688    1
   564  1643  1660    1
   565   255   256    1
   566  1644  1606    1
   567  1011  1012    1
   568  1209  1210    1
   569   258   220    1
   570   257   238    1
   571   291   292    1
   572  1282  1285    1
   573  1480  1483    1
   574   922   925    1
   575  1750  1753    1
   576  1426  1429    1
   577   994   997    1
   578   490   493    1
   579   274   277    1
   580  1102  1105    1
   581  1516  1519    1
   582  1696  1699    1
   583   652   655    1
   584   850   853    1
   585    76    79    1
   586   184   187    1
   587  1588  1591    1
   588   472   475    1
   589  1228  1231    1
   590   670   673    1
   591  1408  1411    1
   592  1156  1159    1
   593   688   691    1
   594  1534  1537    1
   595  1174  1177    1
   596   832   835    1
   597    58    61    1
   598   562   565    1
   599  1732  1735    1
   600   148   151    1
   601   256   259    1
   602   904   907    1
   603   580   583    1
   604  1084  1087    1
   605  1462  1465    1
   606   598   601    1
   607   526   529    1
   608   112   115    1
   609  1606  1609    1
   610  1498  1501    1
   611  1444  1447    1
   612   616   619    1
   613  1714  1717    1
   614   346   349    1
   615   868   871    1
   616  1066  1069    1
   617   544   547    1
   618   508   511    1
   619  1300  1303    1
   620   166   169    1
   621   328   331    1
   622    94    97    1
   623   886   889    1
   624  1642  1645    1
   625  1264  1267    1
   626   634   637    1
   627   130   133    1
   628   436   439    1
   629  1120  1123    1
   630  1624  1627    1
   631  1552  1555    1
   632   976   979    1
   633  1678  1681    1
   634  1246  1249    1
   635  1372  1375    1
   636  1192  1195    1
   637   418   421    1
   638  1786  1789    1
   639   220   223    1
   640   742   745    1
   641   814   817    1
   642   958   961    1
   643    22    25    1
   644  1012  1015    1
   645   760   763    1
   646   400   403    1
   647  1354  1357    1
   648  1570  1573    1
   649  1138  1141    1
   650  1210  1213    1
   651   778   781    1
   652   796   799    1
   653   292   295    1
   654  1336  1339    1
   655     4     7    1
   656   382   385    1
   657   238   241    1
   658   940   943    1
   659   706   709    1
   660  1660  1663    1
   661   310   313    1
   662  1390  1393    1
   663  1048  1051    1
   664  1318  1321    1
   665   364   367    1
   666    40    43    1
   667   454   457    1
   668  1030  1033    1
   669  1768  1771    1
   670   202   205    1
   671   724   727    1
   672  1771  1772    1
   673  1645  1646    1
   674   115   116    1
   675  1285  1286    1
   676  1087  1088    1
   677   583   584    1
   678   673   674    1
   679  1789  1790    1
   680  1393  1394    1
   681   277   278    1
   682   763   764    1
   683   835   836    1
   684  1141  1142    1
   685   799   800    1
   686   295   296    1
   687  1339  1340    1
   688    61    62    1
   689   133   134    1
   690     7     8    1
   691  1465  1466    1
   692   781   782    1
   693   691   692    1
   694   313   314    1
   695   889   890    1
   696   565   566    1
   697   853   854    1
   698  1015  1016    1
   699  1753  1754    1
   700   727   728    1
   701  1609  1610    1
   702   817   818    1
   703   637   638    1
   704  1375  1376    1
   705    79    80    1
   706   655   656    1
   707  1321  1322    1
   708   997   998    1
   709  1123  1124    1
   710  1429  1430    1
   711    43    44    1
   712  1303  1304    1
   713  1411  1412    1
   714  1105  1106    1
   715   709   710    1
   716    97    98    1
   717  1159  1160    1
   718   745   746    1
   719   619   620    1
   720  1735  1736    1
   721  1447  1448    1
   722    25    26    1
   723  1627  1628    1
   724   871   872    1
   725   601   602    1
   726   331   332    1
   727  1357  1358    1
   728  1213  1214    1
   729   151   152    1
   730   907   908    1
   731  1699  1700    1
   732   403   404    1
   733   241   242    1
   734  1195  1196    1
   735  1537  1538    1
   736   511   512    1
   737   529   530    1
   738  1555  1556    1
   739  1573  1574    1
   740  1663  1664    1
   741  1591  1592    1
   742  1519  1520    1
   743   223   224    1
   744   367   368    1
   745   187   188    1
   746   475   476    1
   747  1069  1070    1
   748   925   926    1
   749  1231  1232    1
   750   205   206    1
   751  1501  1502    1
   752  1681  1682    1
   753  1051  1052    1
   754   943   944    1
   755   457   458    1
   756   259   260    1
   757   385   386    1
   758   493   494    1
   759  1249  1250    1
   760  1177  1178    1
   761   961   962    1
   762   169   170    1
   763   547   548    1
   764   979   980    1
   765  1717  1718    1
   766   439   440    1
   767  1267  1268    1
   768  1483  1484    1
   769   349   350    1
   770   421   422    1
   771  1033  1034    1
   772  1358  1740    1
   773  1358  1685    1
   774  1358  1359    1
   775   998  1325    1
   776   998   999    1
   777   998  1380    1
   778  1772  1773    1
   779   926  1253    1
   780   926   927    1
   781   926  1308    1
   782   494   876    1
   783   494   821    1
   784   494   495    1
   785   854  1236    1
   786   854   855    1
   787   854  1181    1
   788  1610  1611    1
   789  1610  1631    1
   790  1610  1650    1
   791   656   657    1
   792   656   641    1
   793   656   696    1
   794  1520  1521    1
   795  1520  1560    1
   796  1520  1505    1
   797    80    81    1
   798    80    65    1
   799    80   120    1
   800  1214  1215    1
   801  1214  1596    1
   802  1214  1541    1
   803  1700  1701    1
   804  1592  1593    1
   805  1592  1632    1
   806  1592  1577    1
   807  1682  1683    1
   808  1682  1722    1
   809  1682  1703    1
   810  1052  1053    1
   811  1052  1398    1
   812  1052  1379    1
   813  1394  1415    1
   814  1394  1434    1
   815  1394  1395    1
   816   458   479    1
   817   458   459    1
   818   458   498    1
   819   818   819    1
   820   818   858    1
   821   818   839    1
   822  1250  1290    1
   823  1250  1271    1
   824  1250  1251    1
   825   314   354    1
   826   314   335    1
   827   314   315    1
   828   692  1038    1
   829   692  1019    1
   830   692   693    1
   831   206   207    1
   832   206   588    1
   833   206   533    1
   834   368   369    1
   835   368   408    1
   836    62   444    1
   837    62   389    1
   838    62    63    1
   839   422   804    1
   840   422   423    1
   841   422   749    1
   842   242   282    1
   843   242   263    1
   844   242   243    1
   845   836  1163    1
   846   836   837    1
   847   836  1182    1
   848  1124  1125    1
   849  1124  1451    1
   850  1124  1470    1
   851   278   279    1
   852   278   660    1
   853   278   605    1
   854   188   189    1
   855   188   534    1
   856   188   515    1
   857  1538  1539    1
   858  1538  1578    1
   859  1538  1559    1
   860    26    66    1
   861    26    47    1
   862    26    27    1
   863  1556  1557    1
   864   674   675    1
   865   674   714    1
   866   674   695    1
   867   746   786    1
   868   746   767    1
   869   746   747    1
   870  1106  1127    1
   871  1106  1146    1
   872  1106  1107    1
   873   224   264    1
   874   224   225    1
   875   224   209    1
   876  1754  1755    1
   877  1754  1775    1
   878  1754  1794    1
   879   476   803    1
   880   476   822    1
   881   476   477    1
   882  1412  1739    1
   883  1412  1758    1
   884  1412  1413    1
   885  1304  1289    1
   886  1304  1305    1
   887  1304  1344    1
   888  1034  1035    1
   889  1034  1074    1
   890  1034  1055    1
   891   296   336    1
   892   296   297    1
   893   296   281    1
   894   332   333    1
   895   332   678    1
   896   332   659    1
   897   152   192    1
   898   152   137    1
   899   152   153    1
   900  1664  1649    1
   901  1664  1665    1
   902  1664  1704    1
   903  1574  1575    1
   904  1286  1287    1
   905  1286  1613    1
   906  1286  1668    1
   907   116   462    1
   908   116   443    1
   909   116   117    1
   910   530   531    1
   911   530   570    1
   912   530   551    1
   913   908  1235    1
   914   908   909    1
   915   908  1254    1
   916  1646  1647    1
   917     8    48    1
   918     8     9    1
   919   584   624    1
   920   584   585    1
   921   584   569    1
   922  1322  1323    1
   923  1322  1343    1
   924  1322  1362    1
   925   782  1164    1
   926   782  1109    1
   927   782   783    1
   928  1484  1485    1
   929   440   480    1
   930   440   441    1
   931   440   425    1
   932  1466  1467    1
   933  1466  1487    1
   934  1466  1506    1
   935  1628  1629    1
   936   548   894    1
   937   548   875    1
   938   548   549    1
   939  1016  1056    1
   940  1016  1017    1
   941  1016  1001    1
   942  1718  1719    1
   943   890   911    1
   944   890   891    1
   945   890   930    1
   946   566   948    1
   947   566   893    1
   948   566   567    1
   949   386   387    1
   950   386   407    1
   951   386   426    1
   952  1232  1233    1
   953  1232  1272    1
   954  1232  1217    1
   955   134   461    1
   956   134   135    1
   957   134   516    1
   958   260   261    1
   959   260   606    1
   960   260   587    1
   961  1340  1667    1
   962  1340  1686    1
   963  1340  1341    1
   964  1376  1416    1
   965  1376  1361    1
   966  1376  1377    1
   967   962   963    1
   968   962   983    1
   969   962  1002    1
   970   404   405    1
   971   404   750    1
   972   404   731    1
   973   638   965    1
   974   638  1020    1
   975   638   639    1
   976  1178  1179    1
   977  1178  1218    1
   978  1178  1199    1
   979   170   210    1
   980   170   191    1
   981   170   171    1
   982   980  1326    1
   983   980   981    1
   984   980  1307    1
   985  1430  1757    1
   986  1430  1431    1
   987  1502  1503    1
   988  1196  1197    1
   989  1196  1523    1
   990  1196  1542    1
   991    98   119    1
   992    98    99    1
   993    98   138    1
   994   512   513    1
   995   512   552    1
   996   512   497    1
   997  1268  1269    1
   998  1268  1595    1
   999  1268  1614    1
  1000  1160  1161    1
  1001  1160  1200    1
  1002  1160  1145    1
  1003   620   966    1
  1004   620   947    1
  1005   620   621    1
  1006  1790  1791    1
  1007   710  1037    1
  1008   710   711    1
  1009   764  1091    1
  1010   764  1110    1
  1011   764   765    1
  1012   728   768    1
  1013   728   729    1
  1014   944   984    1
  1015   944   945    1
  1016   944   929    1
  1017   800   801    1
  1018   800   840    1
  1019   800   785    1
  1020  1088  1128    1
  1021  1088  1089    1
  1022    44   371    1
  1023    44   390    1
  1024    44    45    1
  1025  1736  1737    1
  1026  1736  1776    1
  1027  1736  1721    1
  1028  1448  1449    1
  1029  1448  1488    1
  1030   350   351    1
  1031   350   677    1
  1032   872   873    1
  1033   872   912    1
  1034   872   857    1
  1035  1142  1143    1
  1036  1142  1524    1
  1037  1142  1469    1
  1038   602   642    1
  1039   602   623    1
  1040   602   603    1
  1041  1070  1071    1
  1042  1070  1397    1
  1043   819   820    1
  1044   948   946    1
  1045  1233  1234    1
  1046  1235  1234    1
  1047  1236  1234    1
  1048   966   964    1
  1049   965   964    1
  1050  1035  1036    1
  1051  1037  1036    1
  1052  1143  1144    1
  1053   801   802    1
  1054   803   802    1
  1055   804   802    1
  1056  1038  1036    1
  1057   963   964    1
  1058  1326  1324    1
  1059  1325  1324    1
  1060  1323  1324    1
  1061  1128  1126    1
  1062  1127  1126    1
  1063  1125  1126    1
  1064  1071  1072    1
  1065   909   910    1
  1066   873   874    1
  1067   984   982    1
  1068   911   910    1
  1069  1089  1090    1
  1070  1091  1090    1
  1071  1092  1090    1
  1072   912   910    1
  1073  1163  1162    1
  1074  1161  1162    1
  1075  1269  1270    1
  1076  1290  1288    1
  1077   983   982    1
  1078   981   982    1
  1079  1179  1180    1
  1080   858   856    1
  1081   893   892    1
  1082   891   892    1
  1083   894   892    1
  1084  1200  1198    1
  1085  1074  1072    1
  1086  1272  1270    1
  1087  1020  1018    1
  1088  1164  1162    1
  1089  1019  1018    1
  1090  1271  1270    1
  1091  1218  1216    1
  1092  1217  1216    1
  1093  1287  1288    1
  1094  1289  1288    1
  1095   876   874    1
  1096   875   874    1
  1097  1073  1072    1
  1098   837   838    1
  1099  1254  1252    1
  1100  1253  1252    1
  1101  1002  1000    1
  1102  1182  1180    1
  1103  1056  1054    1
  1104  1251  1252    1
  1105  1055  1054    1
  1106  1053  1054    1
  1107  1146  1144    1
  1108  1145  1144    1
  1109  1017  1018    1
  1110   945   946    1
  1111  1215  1216    1
  1112   947   946    1
  1113   822   820    1
  1114   821   820    1
  1115   857   856    1
  1116   855   856    1
  1117  1181  1180    1
  1118  1199  1198    1
  1119  1197  1198    1
  1120   927   928    1
  1121   929   928    1
  1122   999  1000    1
  1123  1001  1000    1
  1124  1107  1108    1
  1125   930   928    1
  1126  1305  1306    1
  1127  1307  1306    1
  1128  1308  1306    1
  1129   840   838    1
  1130  1109  1108    1
  1131  1110  1108    1
  1132   839   838    1
  1133   369   370    1
  1134  1593  1594    1
  1135   354   352    1
  1136   353   352    1
  1137   351   352    1
  1138  1595  1594    1
  1139  1596  1594    1
  1140   336   334    1
  1141   335   334    1
  1142   333   334    1
  1143  1611  1612    1
  1144  1613  1612    1
  1145  1614  1612    1
  1146   318   316    1
  1147   317   316    1
  1148   315   316    1
  1149   300   298    1
  1150   299   298    1
  1151   297   298    1
  1152  1629  1630    1
  1153  1631  1630    1
  1154  1632  1630    1
  1155   282   280    1
  1156   281   280    1
  1157   279   280    1
  1158  1647  1648    1
  1159   264   262    1
  1160   263   262    1
  1161   261   262    1
  1162  1649  1648    1
  1163  1650  1648    1
  1164   246   244    1
  1165   495   496    1
  1166  1521  1522    1
  1167   480   478    1
  1168   479   478    1
  1169   477   478    1
  1170  1523  1522    1
  1171  1524  1522    1
  1172   462   460    1
  1173   461   460    1
  1174   459   460    1
  1175  1539  1540    1
  1176  1541  1540    1
  1177   444   442    1
  1178   443   442    1
  1179   441   442    1
  1180  1542  1540    1
  1181   371   370    1
  1182   372   370    1
  1183  1578  1576    1
  1184  1577  1576    1
  1185  1575  1576    1
  1186   387   388    1
  1187   389   388    1
  1188   390   388    1
  1189   405   406    1
  1190   407   406    1
  1191   408   406    1
  1192  1560  1558    1
  1193  1559  1558    1
  1194  1557  1558    1
  1195   423   424    1
  1196   425   424    1
  1197   426   424    1
  1198   119   118    1
  1199   117   118    1
  1200  1737  1738    1
  1201  1739  1738    1
  1202  1740  1738    1
  1203   102   100    1
  1204   101   100    1
  1205    99   100    1
  1206    84    82    1
  1207    83    82    1
  1208    81    82    1
  1209  1755  1756    1
  1210  1757  1756    1
  1211  1758  1756    1
  1212    66    64    1
  1213    65    64    1
  1214    63    64    1
  1215  1773  1774    1
  1216    48    46    1
  1217    47    46    1
  1218    45    46    1
  1219  1775  1774    1
  1220  1776  1774    1
  1221    30    28    1
  1222    29    28    1
  1223    27    28    1
  1224  1791  1792    1
  1225  1793  1792    1
  1226    12    10    1
  1227    11    10    1
  1228     9    10    1
  1229  1794  1792    1
  1230   245   244    1
  1231   243   244    1
  1232  1665  1666    1
  1233  1667  1666    1
  1234   228   226    1
  1235   227   226    1
  1236   225   226    1
  1237  1668  1666    1
  1238   210   208    1
  1239   209   208    1
  1240   207   208    1
  1241  1683  1684    1
  1242  1685  1684    1
  1243  1686  1684    1
  1244   192   190    1
  1245   191   190    1
  1246   120   118    1
  1247  1722  1720    1
  1248  1721  1720    1
  1249   135   136    1
  1250   137   136    1
  1251   138   136    1
  1252  1719  1720    1
  1253   153   154    1
  1254   155   154    1
  1255   156   154    1
  1256  1704  1702    1
  1257  1703  1702    1
  1258  1701  1702    1
  1259   171   172    1
  1260   173   172    1
  1261   174   172    1
  1262   189   190    1
  1263  1398  1396    1
  1264   678   676    1
  1265   677   676    1
  1266   675   676    1
  1267  1413  1414    1
  1268  1415  1414    1
  1269   660   658    1
  1270   659   658    1
  1271   657   658    1
  1272  1416  1414    1
  1273   642   640    1
  1274   641   640    1
  1275   639   640    1
  1276  1431  1432    1
  1277  1433  1432    1
  1278  1434  1432    1
  1279   624   622    1
  1280   623   622    1
  1281   621   622    1
  1282   606   604    1
  1283   605   604    1
  1284   603   604    1
  1285  1449  1450    1
  1286  1451  1450    1
  1287  1452  1450    1
  1288   588   586    1
  1289   587   586    1
  1290   585   586    1
  1291  1467  1468    1
  1292  1341  1342    1
  1293   786   784    1
  1294   785   784    1
  1295   783   784    1
  1296  1343  1342    1
  1297  1344  1342    1
  1298   768   766    1
  1299   767   766    1
  1300   765   766    1
  1301  1359  1360    1
  1302  1361  1360    1
  1303  1362  1360    1
  1304   750   748    1
  1305   749   748    1
  1306   747   748    1
  1307   732   730    1
  1308   731   730    1
  1309   729   730    1
  1310  1377  1378    1
  1311  1379  1378    1
  1312  1380  1378    1
  1313   714   712    1
  1314   713   712    1
  1315   711   712    1
  1316  1395  1396    1
  1317   696   694    1
  1318   695   694    1
  1319   693   694    1
  1320  1397  1396    1
  1321  1470  1468    1
  1322   513   514    1
  1323  1503  1504    1
  1324   531   532    1
  1325   549   550    1
  1326  1485  1486    1
  1327   533   532    1
  1328  1469  1468    1
  1329   534   532    1
  1330   567   568    1
  1331   552   550    1
  1332  1505  1504    1
  1333   497   496    1
  1334   570   568    1
  1335  1487  1486    1
  1336   551   550    1
  1337   498   496    1
  1338   569   568    1
  1339   516   514    1
  1340  1506  1504    1
  1341  1488  1486    1
  1342   515   514    1
  1343  1378  1369    1
  1344   820   811    1
  1345   910   901    1
  1346  1540  1531    1
  1347   136   127    1
  1348   118   109    1
  1349  1738  1729    1
  1350   712   703    1
  1351  1720  1711    1
  1352   532   523    1
  1353   442   433    1
  1354  1072  1063    1
  1355   154   145    1
  1356   946   937    1
  1357   694   685    1
  1358  1702  1693    1
  1359  1396  1387    1
  1360   172   163    1
  1361  1180  1171    1
  1362   838   829    1
  1363   190   181    1
  1364  1054  1045    1
  1365  1342  1333    1
  1366    10     1    1
  1367   496   487    1
  1368   784   775    1
  1369  1792  1783    1
  1370    28    19    1
  1371  1126  1117    1
  1372   478   469    1
  1373   928   919    1
  1374  1774  1765    1
  1375   802   793    1
  1376    46    37    1
  1377  1144  1135    1
  1378   766   757    1
  1379  1504  1495    1
  1380  1522  1513    1
  1381  1360  1351    1
  1382    64    55    1
  1383  1108  1099    1
  1384  1324  1315    1
  1385  1756  1747    1
  1386    82    73    1
  1387   748   739    1
  1388  1252  1243    1
  1389   100    91    1
  1390   514   505    1
  1391  1162  1153    1
  1392   730   721    1
  1393   460   451    1
  1394  1090  1081    1
  1395   334   325    1
  1396  1288  1279    1
  1397   550   541    1
  1398   640   631    1
  1399  1198  1189    1
  1400  1648  1639    1
  1401   406   397    1
  1402  1612  1603    1
  1403   262   253    1
  1404  1432  1423    1
  1405   964   955    1
  1406  1018  1009    1
  1407   280   271    1
  1408  1450  1441    1
  1409   874   865    1
  1410  1576  1567    1
  1411  1000   991    1
  1412   316   307    1
  1413   388   379    1
  1414   604   595    1
  1415  1630  1621    1
  1416   622   613    1
  1417   298   289    1
  1418  1216  1207    1
  1419  1234  1225    1
  1420   892   883    1
  1421  1468  1459    1
  1422  1594  1585    1
  1423   424   415    1
  1424   676   667    1
  1425   982   973    1
  1426   370   361    1
  1427  1684  1675    1
  1428  1306  1297    1
  1429  1486  1477    1
  1430   208   199    1
  1431   352   343    1
  1432  1270  1261    1
  1433  1414  1405    1
  1434   586   577    1
  1435   568   559    1
  1436  1558  1549    1
  1437   226   217    1
  1438   658   649    1
  1439  1036  1027    1
  1440  1666  1657    1
  1441   244   235    1
  1442   856   847    1
  1443  1585  1597    1
  1444  1351  1363    1
  1445  1621  1633    1
  1446  1783  1795    1
  1447  1459  1471    1
  1448  1225  1237    1
  1449  1603  1615    1
  1450  1153  1165    1
  1451  1513  1525    1
  1452  1315  1327    1
  1453  1693  1705    1
  1454  1189  1201    1
  1455  1405  1417    1
  1456  1549  1561    1
  1457  1675  1687    1
  1458  1243  1255    1
  1459  1711  1723    1
  1460  1567  1579    1
  1461  1423  1435    1
  1462  1279  1291    1
  1463  1495  1507    1
  1464  1171  1183    1
  1465  1387  1399    1
  1466  1657  1669    1
  1467  1729  1741    1
  1468  1207  1219    1
  1469  1297  1309    1
  1470  1441  1453    1
  1471  1369  1381    1
  1472  1747  1759    1
  1473  1639  1651    1
  1474  1477  1489    1
  1475  1531  1543    1
  1476  1261  1273    1
  1477  1765  1777    1
  1478  1333  1345    1
  1479   523   535    1
  1480   541   553    1
  1481   559   571    1
  1482   577   589    1
  1483   595   607    1
  1484   613   625    1
  1485   631   643    1
  1486   649   661    1
  1487   667   679    1
  1488   685   697    1
  1489   703   715    1
  1490   721   733    1
  1491   739   751    1
  1492   757   769    1
  1493   775   787    1
  1494   793   805    1
  1495   811   823    1
  1496   829   841    1
  1497   847   859    1
  1498   865   877    1
  1499   883   895    1
  1500   901   913    1
  1501   919   931    1
  1502   937   949    1
  1503   955   967    1
  1504   973   985    1
  1505   991  1003    1
  1506  1009  1021    1
  1507  1027  1039    1
  1508     1    13    1
  1509    19    31    1
  1510    37    49    1
  1511    55    67    1
  1512    73    85    1
  1513    91   103    1
  1514   109   121    1
  1515   127   139    1
  1516   145   157    1
  1517   163   175    1
  1518   181   193    1
  1519   199   211    1
  1520   217   229    1
  1521   235   247    1
  1522   253   265    1
  1523   271   283    1
  1524   289   301    1
  1525   307   319    1
  1526   325   337    1
  1527   343   355    1
  1528   361   373    1
  1529   379   391    1
  1530   397   409    1
  1531   415   427    1
  1532   433   445    1
  1533   451   463    1
  1534   469   481    1
  1535   487   499    1
  1536   505   517    1
  1537  1099  1111    1
  1538  1063  1075    1
  1539  1135  1147    1
  1540  1117  1129    1
  1541  1081  1093    1
  1542  1045  1057    1
  1543  1093  1096    1
  1544  1093  1095    1
  1545  1093  1094    1
  1546  1525  1528    1
  1547  1525  1527    1
  1548  1525  1526    1
  1549  1273  1276    1
  1550  1273  1275    1
  1551  1273  1274    1
  1552  1705  1708    1
  1553  1705  1707    1
  1554  1705  1706    1
  1555   805   806    1
  1556   805   807    1
  1557   805   808    1
  1558   175   176    1
  1559   175   177    1
  1560   175   178    1
  1561   301   302    1
  1562   301   303    1
  1563   301   304    1
  1564  1417  1418    1
  1565  1417  1419    1
  1566  1417  1420    1
  1567  1147  1148    1
  1568  1147  1149    1
  1569  1147  1150    1
  1570   193   194    1
  1571   193   195    1
  1572   193   196    1
  1573   895   896    1
  1574   895   897    1
  1575   895   898    1
  1576   661   663    1
  1577   661   664    1
  1578   661   662    1
  1579   481   482    1
  1580   481   483    1
  1581   481   484    1
  1582   913   914    1
  1583   913   915    1
  1584   913   916    1
  1585  1381  1384    1
  1586  1381  1383    1
  1587  1381  1382    1
  1588   157   158    1
  1589   157   159    1
  1590   157   160    1
  1591   499   501    1
  1592   499   502    1
  1593   499   500    1
  1594   931   932    1
  1595   931   933    1
  1596   931   934    1
  1597   139   140    1
  1598   139   141    1
  1599   139   142    1
  1600  1723  1726    1
  1601  1723  1725    1
  1602  1723  1724    1
  1603   643   646    1
  1604   643   644    1
  1605   643   645    1
  1606   391   394    1
  1607   391   392    1
  1608   391   393    1
  1609  1255  1258    1
  1610  1255  1257    1
  1611  1255  1256    1
  1612   787   788    1
  1613   787   789    1
  1614   787   790    1
  1615  1183  1184    1
  1616  1183  1185    1
  1617  1183  1186    1
  1618   841   842    1
  1619   841   843    1
  1620   841   844    1
  1621  1651  1654    1
  1622  1651  1653    1
  1623  1651  1652    1
  1624   427   428    1
  1625   427   429    1
  1626   427   430    1
  1627   697   700    1
  1628   697   698    1
  1629   697   699    1
  1630   265   268    1
  1631   265   266    1
  1632   265   267    1
  1633  1309  1312    1
  1634  1309  1311    1
  1635  1309  1310    1
  1636   247   248    1
  1637   247   249    1
  1638   247   250    1
  1639  1399  1400    1
  1640  1399  1401    1
  1641  1399  1402    1
  1642   823   824    1
  1643   823   825    1
  1644   823   826    1
  1645  1075  1076    1
  1646  1075  1077    1
  1647  1075  1078    1
  1648   229   230    1
  1649   229   231    1
  1650   229   232    1
  1651   859   860    1
  1652   859   861    1
  1653   859   862    1
  1654   283   284    1
  1655   283   285    1
  1656   283   286    1
  1657  1669  1672    1
  1658  1669  1671    1
  1659  1669  1670    1
  1660  1543  1546    1
  1661  1543  1545    1
  1662  1543  1544    1
  1663   715   717    1
  1664   715   718    1
  1665   715   716    1
  1666   445   446    1
  1667   445   447    1
  1668   445   448    1
  1669  1561  1564    1
  1670  1561  1562    1
  1671  1561  1563    1
  1672  1327  1330    1
  1673  1327  1329    1
  1674  1327  1328    1
  1675   679   682    1
  1676   679   681    1
  1677   679   680    1
  1678   211   212    1
  1679   211   213    1
  1680   211   214    1
  1681  1291  1294    1
  1682  1291  1293    1
  1683  1291  1292    1
  1684   877   878    1
  1685   877   879    1
  1686   877   880    1
  1687   463   464    1
  1688   463   465    1
  1689   463   466    1
  1690  1633  1636    1
  1691  1633  1635    1
  1692  1633  1634    1
  1693  1687  1690    1
  1694  1687  1689    1
  1695  1687  1688    1
  1696   409   411    1
  1697   409   410    1
  1698   409   412    1
  1699  1759  1762    1
  1700  1759  1761    1
  1701  1759  1760    1
  1702  1489  1492    1
  1703  1489  1491    1
  1704  1489  1490    1
  1705   607   609    1
  1706   607   608    1
  1707   607   610    1
  1708   535   536    1
  1709   535   537    1
  1710   535   538    1
  1711    67    68    1
  1712    67    69    1
  1713    67    70    1
  1714   373   376    1
  1715   373   375    1
  1716   373   374    1
  1717  1219  1222    1
  1718  1219  1221    1
  1719  1219  1220    1
  1720  1453  1454    1
  1721  1453  1455    1
  1722  1453  1456    1
  1723   769   770    1
  1724   769   771    1
  1725   769   772    1
  1726  1003  1004    1
  1727  1003  1005    1
  1728  1003  1006    1
  1729    49    50    1
  1730    49    51    1
  1731    49    52    1
  1732  1777  1780    1
  1733  1777  1779    1
  1734  1777  1778    1
  1735   553   554    1
  1736   553   555    1
  1737   553   556    1
  1738  1021  1022    1
  1739  1021  1023    1
  1740  1021  1024    1
  1741  1597  1600    1
  1742  1597  1599    1
  1743  1597  1598    1
  1744  1111  1114    1
  1745  1111  1113    1
  1746  1111  1112    1
  1747    31    32    1
  1748    31    33    1
  1749    31    34    1
  1750   589   590    1
  1751   589   591    1
  1752   589   592    1
  1753   355   357    1
  1754   355   358    1
  1755   355   356    1
  1756  1471  1474    1
  1757  1471  1473    1
  1758  1471  1472    1
  1759    13    14    1
  1760    13    15    1
  1761    13    16    1
  1762  1201  1204    1
  1763  1201  1203    1
  1764  1201  1202    1
  1765  1795  1798    1
  1766  1795  1797    1
  1767  1795  1796    1
  1768   751   752    1
  1769   751   753    1
  1770   751   754    1
  1771   571   572    1
  1772   571   573    1
  1773   571   574    1
  1774  1039  1042    1
  1775  1039  1041    1
  1776  1039  1040    1
  1777  1363  1366    1
  1778  1363  1365    1
  1779  1363  1364    1
  1780  1507  1509    1
  1781  1507  1508    1
  1782  1507  1510    1
  1783   121   122    1
  1784   121   123    1
  1785   121   124    1
  1786  1057  1059    1
  1787  1057  1058    1
  1788  1057  1060    1
  1789   949   950    1
  1790   949   951    1
  1791   949   952    1
  1792  1129  1130    1
  1793  1129  1132    1
  1794  1129  1131    1
  1795   733   734    1
  1796   733   735    1
  1797   733   736    1
  1798  1435  1436    1
  1799  1435  1437    1
  1800  1435  1438    1
  1801  1615  1618    1
  1802  1615  1617    1
  1803  1615  1616    1
  1804   103   104    1
  1805   103   105    1
  1806   103   106    1
  1807  1741  1744    1
  1808  1741  1743    1
  1809  1741  1742    1
  1810  1165  1166    1
  1811  1165  1167    1
  1812  1165  1168    1
  1813   517   518    1
  1814   517   519    1
  1815   517   520    1
  1816  1345  1348    1
  1817  1345  1347    1
  1818  1345  1346    1
  1819   319   320    1
  1820   319   321    1
  1821   319   322    1
  1822  1237  1240    1
  1823  1237  1239    1
  1824  1237  1238    1
  1825   337   338    1
  1826   337   339    1
  1827   337   340    1
  1828   985   986    1
  1829   985   987    1
  1830   985   988    1
  1831    85    86    1
  1832    85    87    1
  1833    85    88    1
  1834  1579  1582    1
  1835  1579  1581    1
  1836  1579  1580    1
  1837   967   968    1
  1838   967   969    1
  1839   967   970    1
  1840   625   626    1
  1841   625   627    1
  1842   625   628    1
  1843   394   395    1
  1844   376   377    1
  1845  1582  1583    1
  1846  1581  1547    1
  1847   411   377    1
  1848  1564  1565    1
  1849   410   395    1
  1850  1562  1547    1
  1851   374    53    1
  1852  1580  1601    1
  1853  1563  1529    1
  1854   392    71    1
  1855   393    53    1
  1856   357   323    1
  1857   358   359    1
  1858  1509  1475    1
  1859  1508  1529    1
  1860   501   467    1
  1861   502   503    1
  1862   518   197    1
  1863   519   143    1
  1864   520   521    1
  1865  1166   845    1
  1866  1492  1493    1
  1867  1491  1457    1
  1868  1490  1475    1
  1869   536   215    1
  1870   537   197    1
  1871   538   539    1
  1872  1167   791    1
  1873   554   539    1
  1874   555   521    1
  1875   556   557    1
  1876  1474  1475    1
  1877  1473  1133    1
  1878  1472  1151    1
  1879  1168  1169    1
  1880   572   593    1
  1881   412   413    1
  1882  1096  1097    1
  1883   428   449    1
  1884   429   395    1
  1885   430   431    1
  1886  1546  1547    1
  1887  1545  1205    1
  1888  1544  1223    1
  1889   446   125    1
  1890   447    71    1
  1891   448   449    1
  1892  1094   773    1
  1893   464   143    1
  1894   465   125    1
  1895   466   467    1
  1896  1528  1529    1
  1897  1527  1151    1
  1898  1526  1205    1
  1899   482   467    1
  1900   483   449    1
  1901   484   485    1
  1902   500   521    1
  1903  1510  1511    1
  1904  1130  1115    1
  1905  1744  1745    1
  1906  1743  1367    1
  1907  1742  1421    1
  1908   106   107    1
  1909   122   107    1
  1910   123    89    1
  1911   124   125    1
  1912  1726  1727    1
  1913  1725  1691    1
  1914  1724  1745    1
  1915   140   161    1
  1916   141   107    1
  1917   142   143    1
  1918  1708  1709    1
  1919  1707  1673    1
  1920  1706  1691    1
  1921   160   161    1
  1922   178   179    1
  1923  1798  1799    1
  1924  1797  1763    1
  1925    16    17    1
  1926    34    35    1
  1927  1780  1781    1
  1928  1779  1745    1
  1929  1778  1763    1
  1930    50    35    1
  1931    51    17    1
  1932    52    53    1
  1933  1132  1133    1
  1934    68    89    1
  1935  1762  1763    1
  1936  1761  1421    1
  1937  1760  1439    1
  1938    69    35    1
  1939    70    71    1
  1940  1131  1097    1
  1941    88    89    1
  1942   268   269    1
  1943   284   305    1
  1944  1636  1637    1
  1945  1635  1601    1
  1946  1634  1619    1
  1947   285   251    1
  1948   286   287    1
  1949  1114  1115    1
  1950   304   305    1
  1951  1113   773    1
  1952  1618  1619    1
  1953  1617  1277    1
  1954  1616  1295    1
  1955   322   323    1
  1956  1112   791    1
  1957   338   323    1
  1958   339   305    1
  1959   340   341    1
  1960  1600  1601    1
  1961  1599  1223    1
  1962  1598  1277    1
  1963  1690  1691    1
  1964  1689  1349    1
  1965  1688  1367    1
  1966   194   179    1
  1967   195   161    1
  1968   196   197    1
  1969  1148  1169    1
  1970   212   233    1
  1971   213   179    1
  1972   214   215    1
  1973  1672  1673    1
  1974  1671  1295    1
  1975  1670  1349    1
  1976  1149  1115    1
  1977   232   233    1
  1978  1150  1151    1
  1979   250   251    1
  1980  1654  1655    1
  1981  1653  1619    1
  1982  1652  1673    1
  1983   266   251    1
  1984   267   233    1
  1985  1059  1025    1
  1986   806   485    1
  1987   807   431    1
  1988  1330  1331    1
  1989  1329   989    1
  1990  1328  1007    1
  1991   808   809    1
  1992  1058  1043    1
  1993   824   503    1
  1994   825   485    1
  1995   826   827    1
  1996  1312  1313    1
  1997  1311   935    1
  1998  1310   989    1
  1999   842   827    1
  2000   843   809    1
  2001   844   845    1
  2002  1184   863    1
  2003   860   881    1
  2004   861   827    1
  2005   862   863    1
  2006  1294  1295    1
  2007  1293  1259    1
  2008  1384  1385    1
  2009  1383  1007    1
  2010  1382  1061    1
  2011   717   683    1
  2012   718   719    1
  2013   734   413    1
  2014   736   737    1
  2015  1366  1367    1
  2016  1365  1331    1
  2017  1364  1385    1
  2018   752   431    1
  2019   753   413    1
  2020   754   755    1
  2021   770   755    1
  2022   771   737    1
  2023   772   773    1
  2024  1348  1349    1
  2025  1347  1313    1
  2026  1346  1331    1
  2027  1060  1061    1
  2028   788   809    1
  2029   789   755    1
  2030   790   791    1
  2031  1240  1241    1
  2032  1239   863    1
  2033  1238   917    1
  2034   968   647    1
  2035   969   629    1
  2036   970   971    1
  2037   986   971    1
  2038   987   953    1
  2039   988   989    1
  2040  1222  1223    1
  2041  1221  1187    1
  2042  1220  1241    1
  2043  1004  1025    1
  2044  1005   971    1
  2045  1006  1007    1
  2046  1042  1043    1
  2047  1022   701    1
  2048  1023   647    1
  2049  1204  1205    1
  2050  1203  1169    1
  2051  1202  1187    1
  2052  1024  1025    1
  2053  1041   701    1
  2054  1040   719    1
  2055  1292  1313    1
  2056  1185   845    1
  2057   878   557    1
  2058   879   503    1
  2059   880   881    1
  2060  1186  1187    1
  2061   896   575    1
  2062   897   557    1
  2063   898   899    1
  2064  1276  1277    1
  2065  1275  1241    1
  2066  1274  1259    1
  2067   914   899    1
  2068   915   881    1
  2069   916   917    1
  2070   932   953    1
  2071  1258  1259    1
  2072  1257   917    1
  2073  1256   935    1
  2074   933   899    1
  2075   934   935    1
  2076   950   629    1
  2077   951   575    1
  2078   952   953    1
  2079   663   287    1
  2080   664   665    1
  2081   609   269    1
  2082  1454  1133    1
  2083   608   287    1
  2084   590   269    1
  2085   591   215    1
  2086   626   611    1
  2087   627   593    1
  2088   628   629    1
  2089   646   647    1
  2090  1400  1079    1
  2091  1401  1061    1
  2092  1077  1043    1
  2093  1402  1403    1
  2094   644   665    1
  2095   645   611    1
  2096   592   593    1
  2097   682   683    1
  2098   681   341    1
  2099   680   359    1
  2100  1418  1403    1
  2101  1078  1079    1
  2102   573   539    1
  2103   574   575    1
  2104   700   701    1
  2105  1456  1457    1
  2106   610   611    1
  2107  1419  1385    1
  2108  1420  1421    1
  2109   662   341    1
  2110  1437  1403    1
  2111  1438  1439    1
  2112   698   683    1
  2113   699   665    1
  2114   251   252    1
  2115   827   828    1
  2116   989   990    1
  2117  1421  1422    1
  2118  1763  1764    1
  2119   971   972    1
  2120   215   216    1
  2121  1673  1674    1
  2122    71    72    1
  2123  1313  1314    1
  2124   863   864    1
  2125   485   486    1
  2126   233   234    1
  2127   467   468    1
  2128   647   648    1
  2129  1655  1656    1
  2130   845   846    1
  2131   539   540    1
  2132   125   126    1
  2133  1727  1728    1
  2134   935   936    1
  2135   521   522    1
  2136  1259  1260    1
  2137  1493  1494    1
  2138   107   108    1
  2139   611   612    1
  2140   917   918    1
  2141   143   144    1
  2142   953   954    1
  2143  1439  1440    1
  2144  1709  1710    1
  2145  1187  1188    1
  2146  1241  1242    1
  2147   899   900    1
  2148   503   504    1
  2149   161   162    1
  2150  1115  1116    1
  2151  1277  1278    1
  2152  1745  1746    1
  2153   179   180    1
  2154  1691  1692    1
  2155   629   630    1
  2156   881   882    1
  2157    89    90    1
  2158  1511  1512    1
  2159  1079  1080    1
  2160   197   198    1
  2161   593   594    1
  2162  1295  1296    1
  2163  1403  1404    1
  2164  1349  1350    1
  2165   323   324    1
  2166  1781  1782    1
  2167   773   774    1
  2168  1547  1548    1
  2169   341   342    1
  2170  1601  1602    1
  2171  1061  1062    1
  2172  1475  1476    1
  2173   755   756    1
  2174   431   432    1
  2175   683   684    1
  2176   359   360    1
  2177  1367  1368    1
  2178    17    18    1
  2179  1205  1206    1
  2180  1169  1170    1
  2181  1583  1584    1
  2182   737   738    1
  2183   575   576    1
  2184   377   378    1
  2185  1025  1026    1
  2186   719   720    1
  2187   413   414    1
  2188   701   702    1
  2189   395   396    1
  2190  1097  1098    1
  2191  1799  1800    1
  2192  1565  1566    1
  2193  1385  1386    1
  2194  1223  1224    1
  2195  1151  1152    1
  2196  1529  1530    1
  2197   269   270    1
  2198    53    54    1
  2199   809   810    1
  2200  1457  1458    1
  2201  1637  1638    1
  2202   665   666    1
  2203  1331  1332    1
  2204   287   288    1
  2205  1043  1044    1
  2206  1133  1134    1
  2207   449   450    1
  2208    35    36    1
  2209   791   792    1
  2210  1007  1008    1
  2211   305   306    1
  2212   557   558    1
  2213  1619  1620    1
